pglib_opf_case2848_rte.m
%%%%%%%%%%%%%%%%%%%%%%%%%%%%%%%%%%%%%%%%%%%%%%%%%%%%%%%%%%%%%%%%%%%%%%%%%%%
%%%%                                                                  %%%%%
%%%%    IEEE PES Power Grid Library - Optimal Power Flow - v23.07     %%%%%
%%%%          (https://github.com/power-grid-lib/pglib-opf)           %%%%%
%%%%               Benchmark Group - Typical Operations               %%%%%
%%%%                         23 - July - 2023                         %%%%%
%%%%                                                                  %%%%%
%%%%%%%%%%%%%%%%%%%%%%%%%%%%%%%%%%%%%%%%%%%%%%%%%%%%%%%%%%%%%%%%%%%%%%%%%%%
%
%CASE2848RTE
%   AC Power flow data for French system.
%   Please see CASEFORMAT for details on the case file format.
%
%   This case accurately represents the size and complexity of French
%   very high voltage transmission network.
%   Part of this data was sampled in the offline platform of iTesla.
%   These data can be used to validate mathematical methods and tools.
%   These data should NOT be used for operation
%   nor planning of the French or European grids.
%
%   When publishing results using this data, please cite:
%     C. Josz, S. Fliscounakis, J. Maeght, and P. Panciatici,
%     "AC Power Flow Data in MATPOWER and QCQP Format: iTesla, RTE Snapshots, and PEGASE"
%     http://arxiv.org/abs/1603.01533
%
%   Contacts (primary contact for this file : Jean Maeght):
%   Cédric Josz, Stéphane Fliscounakis, Jean Maeght, Patrick Panciatici
%   firstname.lastname@rte-france.com
%   Réseau de Transport d'Electricité (French Transmission System Operator)
%   Département Expertise Système, Immeuble "Le Colbert"
%   9 rue de la Porte de Buc, 78000 Versailles Cedex, France
%   March 4th, 2016
%
%   Copyright (c) 2016 by Cédric Josz, Stéphane Fliscounakis, Jean Maeght,
%   and Patrick Panciatici
%   Licensed under the Creative Commons Attribution 4.0 International license,
%   http://creativecommons.org/licenses/by/4.0/
%
function mpc = pglib_opf_case2848_rte
mpc.version = '2';
mpc.baseMVA = 100.0;

%% bus data
%	bus_i	type	Pd	Qd	Gs	Bs	area	Vm	Va	baseKV	zone	Vmax	Vmin
mpc.bus = [
	1	 1	 20.6	 0.0	 0.0	 0.0	 1	    1.00000	    0.00000	 63.0	 1	    1.06349	    0.93651;
	2	 1	 20.9	 17.2	 0.0	 0.0	 1	    0.98889	    0.00000	 225.0	 1	    1.08889	    0.88889;
	3	 1	 0.0	 0.0	 0.0	 0.0	 1	    1.05131	    0.00000	 380.0	 1	    1.10263	    1.00000;
	4	 1	 0.0	 0.0	 0.0	 0.0	 1	    1.00000	    0.00000	 63.0	 1	    1.07937	    0.92063;
	5	 1	 0.4	 0.1	 0.0	 0.0	 1	    0.94444	    0.00000	 45.0	 1	    1.00000	    0.88889;
	6	 1	 -2.3	 -20.6	 0.0	 0.0	 1	    0.94444	    0.00000	 45.0	 1	    1.00000	    0.88889;
	7	 1	 110.5	 -25.5	 0.0	 0.0	 1	    1.04222	    0.00000	 225.0	 1	    1.08444	    1.00000;
	8	 1	 44.7	 1.5	 0.0	 0.0	 1	    1.01587	    0.00000	 63.0	 1	    1.06349	    0.96825;
	9	 1	 0.0	 0.0	 0.0	 -21.0	 1	    1.00000	    0.00000	 20.0	 1	    1.20000	    0.80000;
	2966	 1	 0.0	 0.0	 0.0	 -64.0	 1	    1.00000	    0.00000	 20.0	 1	    1.20000	    0.80000;
	10	 1	 0.0	 0.0	 0.0	 0.0	 1	    1.00334	    0.00000	 150.0	 1	    1.10667	    0.90000;
	11	 1	 31.7	 -8.7	 0.0	 0.0	 1	    1.01111	    0.00000	 225.0	 1	    1.08889	    0.93333;
	2571	 1	 43.7	 9.9	 0.0	 0.0	 1	    1.01111	    0.00000	 225.0	 1	    1.08889	    0.93333;
	12	 1	 0.0	 0.0	 0.0	 0.0	 1	    1.05263	    0.00000	 380.0	 1	    1.10526	    1.00000;
	13	 1	 0.0	 0.0	 0.0	 0.0	 1	    1.04534	    0.00000	 225.0	 1	    1.09067	    1.00000;
	14	 1	 -4.1	 3.7	 0.0	 0.0	 1	    1.00000	    0.00000	 63.0	 1	    1.06349	    0.93651;
	15	 1	 9.0	 -3.3	 0.0	 0.0	 1	    1.00000	    0.00000	 63.0	 1	    1.06349	    0.93651;
	16	 1	 120.0	 6.3	 0.0	 0.0	 1	    1.01111	    0.00000	 225.0	 1	    1.08889	    0.93333;
	17	 1	 35.0	 6.9	 0.0	 0.0	 1	    1.04445	    0.00000	 225.0	 1	    1.08889	    1.00000;
	18	 1	 45.0	 13.4	 0.0	 0.0	 1	    1.04481	    0.00000	 225.0	 1	    1.08962	    1.00000;
	19	 2	 0.0	 0.0	 0.0	 0.0	 1	    1.00362	    0.00000	 63.0	 1	    1.08661	    0.92063;
	20	 1	 77.3	 29.1	 0.0	 0.0	 1	    1.04445	    0.00000	 225.0	 1	    1.08889	    1.00000;
	21	 1	 48.4	 4.0	 0.0	 0.0	 1	    0.98889	    0.00000	 225.0	 1	    1.08889	    0.88889;
	22	 1	 4.6	 -11.4	 0.0	 0.0	 1	    1.00450	    0.00000	 63.0	 1	    1.07249	    0.93651;
	23	 1	 33.3	 -5.7	 0.0	 0.0	 1	    1.00000	    0.00000	 63.0	 1	    1.06349	    0.93651;
	24	 1	 0.0	 0.0	 0.0	 0.0	 1	    1.04445	    0.00000	 225.0	 1	    1.08889	    1.00000;
	2573	 1	 0.0	 0.0	 0.0	 0.0	 1	    1.04445	    0.00000	 225.0	 1	    1.08889	    1.00000;
	25	 1	 18.0	 5.6	 0.0	 0.0	 1	    0.98889	    0.00000	 225.0	 1	    1.08889	    0.88889;
	26	 1	 1.0	 -8.0	 0.0	 0.0	 1	    1.04158	    0.00000	 225.0	 1	    1.09649	    0.98667;
	27	 1	 22.0	 -5.6	 0.0	 0.0	 1	    1.00000	    0.00000	 63.0	 1	    1.06349	    0.93651;
	28	 1	 -2.1	 -0.1	 0.0	 0.0	 1	    1.04445	    0.00000	 225.0	 1	    1.08889	    1.00000;
	2574	 1	 39.1	 10.0	 0.0	 0.0	 1	    1.04445	    0.00000	 225.0	 1	    1.08889	    1.00000;
	29	 1	 7.1	 -2.6	 0.0	 0.0	 1	    1.00000	    0.00000	 63.0	 1	    1.06349	    0.93651;
	30	 1	 3.5	 -40.0	 0.0	 0.0	 1	    1.04445	    0.00000	 225.0	 1	    1.08889	    1.00000;
	31	 1	 7.7	 -1.8	 0.0	 0.0	 1	    1.00431	    0.00000	 63.0	 1	    1.07211	    0.93651;
	32	 1	 12.1	 2.1	 0.0	 0.0	 1	    1.00000	    0.00000	 63.0	 1	    1.06349	    0.93651;
	33	 1	 2.4	 -0.4	 0.0	 0.0	 1	    0.94444	    0.00000	 45.0	 1	    1.00000	    0.88889;
	34	 1	 -0.0	 0.0	 0.0	 0.0	 1	    0.94444	    0.00000	 45.0	 1	    1.00000	    0.88889;
	35	 1	 26.0	 0.1	 0.0	 0.0	 1	    1.01587	    0.00000	 63.0	 1	    1.06349	    0.96825;
	36	 1	 0.7	 -4.1	 0.0	 0.0	 1	    0.94444	    0.00000	 45.0	 1	    1.00000	    0.88889;
	37	 1	 9.3	 -5.3	 0.0	 0.0	 1	    1.00000	    0.00000	 63.0	 1	    1.06349	    0.93651;
	39	 1	 78.4	 -4.8	 0.0	 0.0	 1	    1.03800	    0.00000	 225.0	 1	    1.08934	    0.98667;
	40	 1	 25.1	 -3.3	 0.0	 0.0	 1	    0.98889	    0.00000	 225.0	 1	    1.08889	    0.88889;
	41	 1	 80.4	 7.4	 0.0	 0.0	 1	    1.04222	    0.00000	 225.0	 1	    1.08444	    1.00000;
	42	 1	 37.8	 2.9	 0.0	 0.0	 1	    1.00010	    0.00000	 63.0	 1	    1.06370	    0.93651;
	43	 1	 0.0	 0.0	 0.0	 0.0	 1	    1.01111	    0.00000	 225.0	 1	    1.08889	    0.93333;
	44	 1	 29.0	 -10.0	 0.0	 0.0	 1	    1.01587	    0.00000	 63.0	 1	    1.06349	    0.96825;
	45	 1	 97.4	 -3.0	 0.0	 0.0	 1	    1.04445	    0.00000	 225.0	 1	    1.08889	    1.00000;
	46	 1	 0.0	 0.0	 0.0	 0.0	 1	    1.05263	    0.00000	 380.0	 1	    1.10526	    1.00000;
	2575	 1	 0.0	 0.0	 0.0	 0.0	 1	    1.05263	    0.00000	 380.0	 1	    1.10526	    1.00000;
	47	 1	 21.3	 -2.6	 0.0	 0.0	 1	    1.00128	    0.00000	 63.0	 1	    1.06606	    0.93651;
	48	 1	 -0.3	 0.8	 0.0	 0.0	 1	    1.00193	    0.00000	 63.0	 1	    1.06735	    0.93651;
	49	 1	 11.6	 3.2	 0.0	 0.0	 1	    1.01587	    0.00000	 63.0	 1	    1.06349	    0.96825;
	2576	 1	 9.3	 4.7	 0.0	 0.0	 1	    1.01587	    0.00000	 63.0	 1	    1.06349	    0.96825;
	50	 1	 0.0	 0.0	 0.0	 0.0	 1	    1.04222	    0.00000	 225.0	 1	    1.08444	    1.00000;
	51	 1	 66.6	 0.0	 0.0	 0.0	 1	    1.04222	    0.00000	 225.0	 1	    1.08444	    1.00000;
	52	 1	 0.0	 0.0	 0.0	 0.0	 1	    1.04445	    0.00000	 225.0	 1	    1.08889	    1.00000;
	2942	 1	 53.9	 11.2	 0.0	 0.0	 1	    1.04445	    0.00000	 225.0	 1	    1.08889	    1.00000;
	53	 2	 7.9	 -4.7	 0.0	 0.0	 1	    1.01587	    0.00000	 63.0	 1	    1.06349	    0.96825;
	54	 1	 0.0	 0.0	 0.0	 0.0	 1	    1.02333	    0.00000	 150.0	 1	    1.08000	    0.96667;
	55	 1	 40.5	 8.5	 0.0	 0.0	 1	    1.04730	    0.00000	 225.0	 1	    1.09459	    1.00000;
	56	 1	 0.0	 0.0	 0.0	 0.0	 1	    1.05263	    0.00000	 380.0	 1	    1.10526	    1.00000;
	57	 1	 80.2	 -7.7	 0.0	 0.0	 1	    1.03778	    0.00000	 225.0	 1	    1.08889	    0.98667;
	58	 1	 0.0	 0.0	 0.0	 -64.0	 1	    1.00000	    0.00000	 20.0	 1	    1.20000	    0.80000;
	59	 1	 35.3	 -9.2	 0.0	 0.0	 1	    1.02889	    0.00000	 225.0	 1	    1.08889	    0.96889;
	60	 1	 58.9	 2.6	 0.0	 0.0	 1	    1.05263	    0.00000	 380.0	 1	    1.10526	    1.00000;
	61	 1	 5.5	 1.7	 0.0	 0.0	 1	    1.00000	    0.00000	 63.0	 1	    1.06349	    0.93651;
	62	 1	 0.6	 0.7	 0.0	 0.0	 1	    1.01587	    0.00000	 63.0	 1	    1.06349	    0.96825;
	63	 1	 28.6	 4.1	 0.0	 0.0	 1	    1.01587	    0.00000	 63.0	 1	    1.06349	    0.96825;
	2577	 1	 0.0	 0.0	 0.0	 0.0	 1	    1.01587	    0.00000	 63.0	 1	    1.06349	    0.96825;
	64	 1	 39.6	 9.4	 0.0	 0.0	 1	    1.01111	    0.00000	 225.0	 1	    1.08889	    0.93333;
	65	 1	 0.0	 0.0	 0.0	 0.0	 1	    1.01587	    0.00000	 63.0	 1	    1.06349	    0.96825;
	66	 1	 12.5	 -6.5	 0.0	 0.0	 1	    0.94444	    0.00000	 45.0	 1	    1.00000	    0.88889;
	2578	 2	 0.0	 0.0	 0.0	 0.0	 1	    0.94444	    0.00000	 45.0	 1	    1.00000	    0.88889;
	67	 1	 0.4	 3.2	 0.0	 0.0	 1	    0.98889	    0.00000	 225.0	 1	    1.08889	    0.88889;
	2579	 1	 42.5	 7.2	 0.0	 0.0	 1	    0.98889	    0.00000	 225.0	 1	    1.08889	    0.88889;
	68	 1	 4.2	 -2.2	 0.0	 0.0	 1	    1.00000	    0.00000	 20.0	 1	    1.20000	    0.80000;
	69	 1	 139.3	 4.7	 0.0	 0.0	 1	    1.04343	    0.00000	 225.0	 1	    1.08685	    1.00000;
	70	 1	 83.7	 -8.3	 0.0	 0.0	 1	    1.04445	    0.00000	 225.0	 1	    1.08889	    1.00000;
	71	 2	 0.0	 0.0	 0.0	 0.0	 1	    1.00442	    0.00000	 150.0	 1	    1.10885	    0.90000;
	72	 1	 0.0	 0.0	 0.0	 0.0	 1	    1.04445	    0.00000	 225.0	 1	    1.08889	    1.00000;
	2580	 1	 0.0	 0.0	 0.0	 0.0	 1	    1.04445	    0.00000	 225.0	 1	    1.08889	    1.00000;
	74	 1	 0.0	 0.0	 0.0	 -80.0	 1	    1.04445	    0.00000	 225.0	 1	    1.08889	    1.00000;
	75	 1	 15.2	 5.4	 0.0	 0.0	 1	    1.00000	    0.00000	 63.0	 1	    1.06349	    0.93651;
	76	 2	 0.0	 0.0	 0.0	 0.0	 1	    0.94444	    0.00000	 45.0	 1	    1.00000	    0.88889;
	77	 1	 5.7	 -1.3	 0.0	 0.0	 1	    1.00272	    0.00000	 63.0	 1	    1.08481	    0.92063;
	78	 1	 7.8	 5.8	 0.0	 0.0	 1	    1.04445	    0.00000	 225.0	 1	    1.08889	    1.00000;
	79	 1	 14.0	 -4.6	 0.0	 0.0	 1	    1.00000	    0.00000	 63.0	 1	    1.07937	    0.92063;
	80	 1	 7.1	 -2.3	 0.0	 0.0	 1	    1.00404	    0.00000	 63.0	 1	    1.08744	    0.92063;
	81	 1	 0.0	 0.0	 0.0	 0.0	 1	    1.04445	    0.00000	 225.0	 1	    1.08889	    1.00000;
	82	 1	 59.6	 24.0	 0.0	 0.0	 1	    0.98889	    0.00000	 225.0	 1	    1.08889	    0.88889;
	83	 1	 27.8	 -7.5	 0.0	 0.0	 1	    1.01544	    0.00000	 63.0	 1	    1.06349	    0.96740;
	84	 1	 61.1	 -4.5	 0.0	 0.0	 1	    1.02889	    0.00000	 225.0	 1	    1.08889	    0.96889;
	85	 1	 0.0	 0.0	 0.0	 0.0	 1	    1.05263	    0.00000	 380.0	 1	    1.10526	    1.00000;
	86	 1	 31.8	 1.0	 0.0	 0.0	 1	    1.01587	    0.00000	 63.0	 1	    1.06349	    0.96825;
	87	 1	 22.8	 -0.9	 0.0	 0.0	 1	    1.01587	    0.00000	 63.0	 1	    1.06349	    0.96825;
	88	 1	 2.1	 0.8	 0.0	 0.0	 1	    1.01587	    0.00000	 63.0	 1	    1.06349	    0.96825;
	89	 1	 30.5	 6.3	 0.0	 0.0	 1	    1.01587	    0.00000	 63.0	 1	    1.06349	    0.96825;
	2581	 1	 32.0	 12.1	 0.0	 0.0	 1	    1.01587	    0.00000	 63.0	 1	    1.06349	    0.96825;
	90	 1	 0.0	 0.0	 0.0	 0.0	 1	    1.04222	    0.00000	 225.0	 1	    1.08444	    1.00000;
	2582	 1	 0.0	 0.0	 0.0	 0.0	 1	    1.04222	    0.00000	 225.0	 1	    1.08444	    1.00000;
	91	 1	 89.3	 -15.7	 0.0	 0.0	 1	    1.04445	    0.00000	 225.0	 1	    1.08889	    1.00000;
	92	 1	 6.4	 -11.6	 0.0	 0.0	 1	    1.01187	    0.00000	 225.0	 1	    1.09041	    0.93333;
	93	 2	 0.0	 0.0	 0.0	 0.0	 1	    1.00453	    0.00000	 150.0	 1	    1.10907	    0.90000;
	94	 1	 37.7	 57.2	 0.0	 0.0	 1	    1.04222	    0.00000	 225.0	 1	    1.08444	    1.00000;
	2583	 1	 33.4	 -0.5	 0.0	 0.0	 1	    1.04222	    0.00000	 225.0	 1	    1.08444	    1.00000;
	95	 1	 0.0	 0.0	 0.0	 0.0	 1	    1.03333	    0.00000	 225.0	 1	    1.08889	    0.97778;
	96	 1	 9.0	 0.8	 0.0	 0.0	 1	    0.98889	    0.00000	 225.0	 1	    1.08889	    0.88889;
	97	 1	 35.8	 4.5	 0.0	 0.0	 1	    1.01587	    0.00000	 63.0	 1	    1.06349	    0.96825;
	98	 1	 16.5	 -8.7	 0.0	 0.0	 1	    1.01111	    0.00000	 225.0	 1	    1.08889	    0.93333;
	99	 1	 28.6	 5.0	 0.0	 0.0	 1	    1.04445	    0.00000	 225.0	 1	    1.08889	    1.00000;
	2584	 1	 14.5	 3.6	 0.0	 0.0	 1	    1.04445	    0.00000	 225.0	 1	    1.08889	    1.00000;
	100	 1	 7.3	 -5.1	 0.0	 0.0	 1	    1.04445	    0.00000	 225.0	 1	    1.08889	    1.00000;
	101	 1	 6.4	 2.5	 0.0	 0.0	 1	    1.03778	    0.00000	 225.0	 1	    1.08889	    0.98667;
	102	 1	 0.0	 0.0	 0.0	 0.0	 1	    0.98889	    0.00000	 225.0	 1	    1.08889	    0.88889;
	2585	 1	 0.0	 0.0	 0.0	 0.0	 1	    0.98889	    0.00000	 225.0	 1	    1.08889	    0.88889;
	103	 1	 0.0	 0.0	 0.0	 0.0	 1	    1.05263	    0.00000	 380.0	 1	    1.10526	    1.00000;
	104	 1	 45.6	 7.0	 0.0	 0.0	 1	    1.04445	    0.00000	 225.0	 1	    1.08889	    1.00000;
	2586	 1	 19.1	 5.8	 0.0	 -80.0	 1	    1.04445	    0.00000	 225.0	 1	    1.08889	    1.00000;
	105	 1	 10.1	 -0.9	 0.0	 0.0	 1	    1.00000	    0.00000	 63.0	 1	    1.07937	    0.92063;
	106	 1	 0.0	 0.0	 0.0	 0.0	 1	    1.03333	    0.00000	 225.0	 1	    1.08889	    0.97778;
	2587	 1	 0.0	 0.0	 0.0	 0.0	 1	    1.03333	    0.00000	 225.0	 1	    1.08889	    0.97778;
	107	 1	 8.4	 3.5	 0.0	 0.0	 1	    1.01587	    0.00000	 63.0	 1	    1.06349	    0.96825;
	108	 1	 39.7	 -6.4	 0.0	 0.0	 1	    1.04222	    0.00000	 225.0	 1	    1.08444	    1.00000;
	109	 1	 0.0	 0.0	 0.0	 0.0	 1	    1.04222	    0.00000	 225.0	 1	    1.08444	    1.00000;
	110	 1	 0.0	 0.0	 0.0	 0.0	 1	    1.05131	    0.00000	 380.0	 1	    1.10263	    1.00000;
	111	 1	 62.2	 -16.1	 0.0	 0.0	 1	    1.04222	    0.00000	 225.0	 1	    1.08444	    1.00000;
	112	 1	 2.2	 -1.0	 0.0	 0.0	 1	    1.04517	    0.00000	 225.0	 1	    1.09035	    1.00000;
	2588	 1	 12.3	 -2.0	 0.0	 0.0	 1	    1.04517	    0.00000	 225.0	 1	    1.09035	    1.00000;
	113	 1	 5.0	 -3.8	 0.0	 0.0	 1	    0.98889	    0.00000	 225.0	 1	    1.08889	    0.88889;
	114	 1	 30.0	 0.0	 0.0	 0.0	 1	    1.00000	    0.00000	 63.0	 1	    1.06349	    0.93651;
	115	 1	 11.7	 1.8	 0.0	 0.0	 1	    0.98889	    0.00000	 225.0	 1	    1.08889	    0.88889;
	116	 1	 51.9	 15.9	 0.0	 0.0	 1	    0.98889	    0.00000	 225.0	 1	    1.08889	    0.88889;
	117	 1	 2.6	 0.2	 0.0	 0.0	 1	    1.01587	    0.00000	 63.0	 1	    1.06349	    0.96825;
	118	 1	 38.0	 3.1	 0.0	 0.0	 1	    1.00000	    0.00000	 63.0	 1	    1.07937	    0.92063;
	119	 1	 24.0	 -7.3	 0.0	 0.0	 1	    1.01587	    0.00000	 63.0	 1	    1.06349	    0.96825;
	120	 2	 0.0	 0.0	 0.0	 0.0	 1	    1.00257	    0.00000	 63.0	 1	    1.06863	    0.93651;
	121	 1	 8.0	 2.5	 0.0	 0.0	 1	    1.01587	    0.00000	 63.0	 1	    1.06349	    0.96825;
	2589	 1	 9.9	 3.5	 0.0	 0.0	 1	    1.01587	    0.00000	 63.0	 1	    1.06349	    0.96825;
	122	 1	 77.1	 -3.9	 0.0	 0.0	 1	    1.04445	    0.00000	 225.0	 1	    1.08889	    1.00000;
	123	 1	 21.2	 4.4	 0.0	 0.0	 1	    1.00000	    0.00000	 63.0	 1	    1.07937	    0.92063;
	124	 2	 -0.0	 -4.6	 0.0	 0.0	 1	    1.00133	    0.00000	 63.0	 1	    1.08203	    0.92063;
	125	 1	 0.0	 0.0	 0.0	 0.0	 1	    1.00000	    0.00000	 63.0	 1	    1.07937	    0.92063;
	126	 1	 0.0	 0.0	 0.0	 0.0	 1	    1.04445	    0.00000	 225.0	 1	    1.08889	    1.00000;
	127	 1	 0.0	 0.0	 0.0	 0.0	 1	    1.05263	    0.00000	 380.0	 1	    1.10526	    1.00000;
	128	 1	 17.1	 1.5	 0.0	 0.0	 1	    1.00000	    0.00000	 63.0	 1	    1.06349	    0.93651;
	129	 2	 18.2	 12.2	 0.0	 0.0	 1	    1.00000	    0.00000	 63.0	 1	    1.06349	    0.93651;
	130	 1	 -13.2	 16.1	 0.0	 0.0	 1	    1.00000	    0.00000	 63.0	 1	    1.07937	    0.92063;
	131	 1	 0.0	 0.0	 0.0	 0.0	 1	    1.04445	    0.00000	 225.0	 1	    1.08889	    1.00000;
	132	 1	 81.2	 18.3	 0.0	 0.0	 1	    1.04445	    0.00000	 225.0	 1	    1.08889	    1.00000;
	133	 2	 9.6	 3.3	 0.0	 0.0	 1	    1.01682	    0.00000	 63.0	 1	    1.06538	    0.96825;
	134	 2	 0.0	 0.0	 0.0	 0.0	 1	    1.02333	    0.00000	 150.0	 1	    1.08000	    0.96667;
	135	 2	 -8.9	 -4.4	 0.0	 0.0	 1	    1.00000	    0.00000	 63.0	 1	    1.07937	    0.92063;
	136	 1	 -10.6	 -2.1	 0.0	 0.0	 1	    1.03778	    0.00000	 225.0	 1	    1.08889	    0.98667;
	137	 1	 14.1	 -3.7	 0.0	 0.0	 1	    1.01587	    0.00000	 63.0	 1	    1.06349	    0.96825;
	138	 1	 11.3	 -2.7	 0.0	 0.0	 1	    1.04222	    0.00000	 225.0	 1	    1.08444	    1.00000;
	139	 1	 9.4	 -2.2	 0.0	 0.0	 1	    1.01587	    0.00000	 63.0	 1	    1.06349	    0.96825;
	140	 1	 0.0	 0.0	 0.0	 0.0	 1	    1.05263	    0.00000	 380.0	 1	    1.10526	    1.00000;
	2590	 1	 0.0	 0.0	 0.0	 0.0	 1	    1.05263	    0.00000	 380.0	 1	    1.10526	    1.00000;
	141	 1	 11.1	 4.5	 0.0	 0.0	 1	    1.04445	    0.00000	 225.0	 1	    1.08889	    1.00000;
	142	 1	 7.2	 5.2	 0.0	 0.0	 1	    1.04445	    0.00000	 225.0	 1	    1.08889	    1.00000;
	143	 1	 20.9	 -1.3	 0.0	 0.0	 1	    1.01587	    0.00000	 63.0	 1	    1.06349	    0.96825;
	144	 1	 33.4	 6.5	 0.0	 0.0	 1	    1.00000	    0.00000	 150.0	 1	    1.10000	    0.90000;
	145	 1	 61.8	 -3.3	 0.0	 0.0	 1	    1.04462	    0.00000	 225.0	 1	    1.08925	    1.00000;
	146	 2	 0.0	 -0.0	 0.0	 0.0	 1	    1.04445	    0.00000	 225.0	 1	    1.08889	    1.00000;
	147	 1	 0.0	 0.0	 0.0	 0.0	 1	    1.01111	    0.00000	 225.0	 1	    1.08889	    0.93333;
	148	 1	 0.0	 0.0	 0.0	 0.0	 1	    1.05263	    0.00000	 380.0	 1	    1.10526	    1.00000;
	2591	 1	 0.0	 0.0	 0.0	 0.0	 1	    1.05263	    0.00000	 380.0	 1	    1.10526	    1.00000;
	149	 1	 0.0	 0.0	 0.0	 0.0	 1	    1.04445	    0.00000	 225.0	 1	    1.08889	    1.00000;
	2592	 1	 61.8	 10.2	 0.0	 0.0	 1	    1.04445	    0.00000	 225.0	 1	    1.08889	    1.00000;
	150	 1	 0.0	 0.0	 0.0	 0.0	 1	    1.03778	    0.00000	 225.0	 1	    1.08889	    0.98667;
	151	 1	 9.8	 4.5	 0.0	 0.0	 1	    1.04445	    0.00000	 225.0	 1	    1.08889	    1.00000;
	152	 1	 0.0	 0.0	 0.0	 0.0	 1	    1.00000	    0.00000	 20.0	 1	    1.20000	    0.80000;
	153	 1	 88.2	 -7.1	 0.0	 0.0	 1	    1.01111	    0.00000	 225.0	 1	    1.08889	    0.93333;
	154	 1	 0.0	 0.0	 0.0	 0.0	 1	    1.05263	    0.00000	 380.0	 1	    1.10526	    1.00000;
	155	 1	 23.8	 -12.3	 0.0	 0.0	 1	    1.04445	    0.00000	 225.0	 1	    1.08889	    1.00000;
	156	 1	 18.2	 -0.6	 0.0	 0.0	 1	    1.00077	    0.00000	 63.0	 1	    1.06503	    0.93651;
	157	 1	 0.4	 0.2	 0.0	 0.0	 1	    1.01587	    0.00000	 63.0	 1	    1.06349	    0.96825;
	158	 1	 18.7	 -2.5	 0.0	 0.0	 1	    1.00000	    0.00000	 63.0	 1	    1.07937	    0.92063;
	159	 1	 19.2	 -1.0	 0.0	 0.0	 1	    1.01587	    0.00000	 63.0	 1	    1.06349	    0.96825;
	160	 1	 4.0	 0.2	 0.0	 0.0	 1	    1.00000	    0.00000	 63.0	 1	    1.06349	    0.93651;
	161	 2	 0.0	 0.0	 0.0	 0.0	 1	    0.97500	    0.00000	 63.0	 1	    1.15000	    0.80000;
	162	 1	 2.8	 3.9	 0.0	 0.0	 1	    1.04527	    0.00000	 225.0	 1	    1.09053	    1.00000;
	163	 1	 0.0	 0.0	 0.0	 0.0	 1	    1.01587	    0.00000	 63.0	 1	    1.06349	    0.96825;
	164	 1	 68.7	 -27.8	 0.0	 0.0	 1	    1.04895	    0.00000	 225.0	 1	    1.09791	    1.00000;
	165	 1	 70.9	 -7.8	 0.0	 0.0	 1	    1.03778	    0.00000	 225.0	 1	    1.08889	    0.98667;
	166	 1	 35.7	 1.2	 0.0	 0.0	 1	    1.01587	    0.00000	 63.0	 1	    1.06349	    0.96825;
	167	 1	 66.9	 15.7	 0.0	 0.0	 1	    1.04534	    0.00000	 225.0	 1	    1.09067	    1.00000;
	168	 1	 10.2	 -5.9	 0.0	 0.0	 1	    1.00000	    0.00000	 63.0	 1	    1.06349	    0.93651;
	169	 1	 22.5	 -8.3	 0.0	 0.0	 1	    1.01587	    0.00000	 63.0	 1	    1.06349	    0.96825;
	170	 1	 3.1	 1.2	 0.0	 0.0	 1	    1.00236	    0.00000	 63.0	 1	    1.06822	    0.93651;
	171	 1	 103.9	 36.4	 0.0	 0.0	 1	    1.00667	    0.00000	 225.0	 1	    1.08889	    0.92444;
	172	 2	 -0.0	 0.0	 0.0	 0.0	 1	    1.01587	    0.00000	 63.0	 1	    1.06349	    0.96825;
	173	 1	 46.9	 -16.3	 0.0	 0.0	 1	    1.04141	    0.00000	 225.0	 1	    1.09616	    0.98667;
	174	 1	 0.0	 0.0	 0.0	 0.0	 1	    1.05263	    0.00000	 380.0	 1	    1.10526	    1.00000;
	175	 1	 83.4	 -19.9	 0.0	 0.0	 1	    1.04222	    0.00000	 225.0	 1	    1.08444	    1.00000;
	176	 1	 0.0	 0.0	 0.0	 -64.0	 1	    1.00000	    0.00000	 20.0	 1	    1.20000	    0.80000;
	177	 1	 0.0	 0.0	 0.0	 0.0	 1	    1.01217	    0.00000	 63.0	 1	    1.06349	    0.96086;
	178	 1	 0.0	 0.0	 0.0	 0.0	 1	    1.04222	    0.00000	 225.0	 1	    1.08444	    1.00000;
	179	 1	 0.0	 0.0	 0.0	 0.0	 1	    1.05131	    0.00000	 380.0	 1	    1.10263	    1.00000;
...
];

%% generator data
%	bus	Pg	Qg	Qmax	Qmin	Vg	mBase	status	Pmax	Pmin
mpc.gen = [
	1279	 21.0	 0.0	 15.0	 -15.0	 1.044445	 100.0	 1	 35.0	 7.0	0.5173	0.5177; % NG
	1210	 21.66	 2.5	 20.0	 -15.0	 1.0	 100.0	 1	 36.1	 7.22	0.7001	0.7018; % PEL
	751	 27.6	 6.0	 21.0	 -9.0	 1.0158755	 100.0	 1	 46.0	 9.2	0.7001	0.7018; % PEL
	978	 2.0	 0.0	 0.1	 -0.1	 1.0	 100.0	 1	 4.0	 0.0	0.5173	0.5177; % NG
	978	 4.2	 0.95	 1.0	 0.9	 1.0	 100.0	 1	 7.0	 1.4	0.8204	0.8230; % COW
	158	 1.35	 0.0	 0.0	 0.0	 1.0000025	 100.0	 1	 2.7	 0.0	0.7001	0.7018; % PEL
	1217	 7.8	 0.0	 5.0	 -5.0	 1.022612	 100.0	 1	 13.0	 2.6	0.5173	0.5177; % NG
	367	 30.0	 9.0	 27.0	 -9.0	 1.0	 100.0	 1	 50.0	 10.0	0.5173	0.5177; % NG
	1127	 9.6	 0.0	 0.0	 0.0	 1.015872	 100.0	 1	 16.0	 3.2	0.8204	0.8230; % COW
	460	 37.2	 0.0	 40.0	 -40.0	 1.04643	 100.0	 1	 62.0	 12.4	0.5173	0.5177; % NG
	968	 10.8	 0.0	 10.0	 -10.0	 1.0000025	 100.0	 1	 18.0	 3.6	0.7001	0.7018; % PEL
	1827	 13.2	 -2.5	 7.0	 -12.0	 1.033334	 100.0	 1	 22.0	 4.4	0.5173	0.5177; % NG
	1466	 20.5	 -5.0	 5.0	 -15.0	 1.0	 100.0	 1	 40.0	 1.0	0.8204	0.8230; % COW
	2863	 20.5	 0.0	 6.0	 -6.0	 1.0	 100.0	 1	 40.0	 1.0	0.5173	0.5177; % NG
	1466	 20.5	 -5.0	 5.0	 -15.0	 1.0	 100.0	 1	 40.0	 1.0	0.5173	0.5177; % NG
	2863	 20.5	 0.0	 6.0	 -6.0	 1.0	 100.0	 1	 40.0	 1.0	0.5173	0.5177; % NG
	1072	 7.2	 0.95	 1.0	 0.9	 1.00445	 100.0	 1	 12.0	 2.4	0.8204	0.8230; % COW
	1072	 0.0	 0.0	 1.0	 0.9	 1.00445	 100.0	 0	 14.0	 2.8	0.5173	0.5177; % NG
	1072	 7.2	 0.95	 1.0	 0.9	 1.00445	 100.0	 1	 12.0	 2.4	0.8204	0.8230; % COW
	642	 6.2	 0.0	 3.0	 -3.0	 1.021212	 100.0	 1	 10.33	 2.07	0.7001	0.7018; % PEL
	642	 6.2	 0.0	 3.0	 -3.0	 1.021212	 100.0	 1	 10.33	 2.07	0.8204	0.8230; % COW
	542	 27.5	 6.0	 22.0	 -10.0	 1.015872	 100.0	 1	 50.0	 5.0	0.7001	0.7018; % PEL
	773	 7.2	 0.0	 0.0	 0.0	 1.0000025	 100.0	 1	 12.0	 2.4	0.5173	0.5177; % NG
	399	 8.28	 0.0	 0.0	 0.0	 1.015872	 100.0	 1	 13.8	 2.76	0.5173	0.5177; % NG
	399	 0.6	 0.0	 0.0	 0.0	 1.015872	 100.0	 1	 1.2	 0.0	0.7001	0.7018; % PEL
	21	 14.4	 0.0	 0.0	 0.0	 0.9888895	 100.0	 1	 24.0	 4.8	0.5173	0.5177; % NG
	21	 16.56	 0.0	 0.0	 0.0	 0.9888895	 100.0	 1	 27.6	 5.52	0.5173	0.5177; % NG
	899	 10.8	 0.0	 0.0	 0.0	 1.000709	 100.0	 1	 18.0	 3.6	0.5173	0.5177; % NG
	899	 12.6	 0.0	 0.0	 0.0	 1.000709	 100.0	 1	 21.0	 4.2	0.5173	0.5177; % NG
	2618	 3.6	 0.0	 0.0	 0.0	 0.999999	 100.0	 1	 6.0	 1.2	0.5173	0.5177; % NG
	2618	 22.5	 2.0	 10.0	 -6.0	 0.999999	 100.0	 1	 37.5	 7.5	0.7001	0.7018; % PEL
	285	 3.6	 0.0	 0.0	 0.0	 0.999999	 100.0	 1	 6.0	 1.2	0.8204	0.8230; % COW
	285	 22.5	 2.0	 10.0	 -6.0	 0.999999	 100.0	 1	 37.5	 7.5	0.7001	0.7018; % PEL
	135	 7.8	 -0.5	 5.0	 -6.0	 1.0000025	 100.0	 1	 13.0	 2.6	0.5173	0.5177; % NG
	53	 10.8	 0.0	 0.8	 -0.8	 1.015872	 100.0	 1	 18.0	 3.6	0.5173	0.5177; % NG
	53	 10.8	 0.0	 0.8	 -0.8	 1.015872	 100.0	 1	 18.0	 3.6	0.8204	0.8230; % COW
	596	 2.0	 0.0	 0.0	 0.0	 1.04598	 100.0	 1	 4.0	 0.0	0.5173	0.5177; % NG
	958	 2.3	 0.0	 0.0	 0.0	 0.975	 100.0	 1	 4.6	 0.0	0.7001	0.7018; % PEL
	1679	 12.6	 1.0	 6.0	 -4.0	 1.0	 100.0	 1	 21.0	 4.2	0.5173	0.5177; % NG
	1679	 12.6	 1.1	 6.7	 -4.5	 1.0	 100.0	 1	 21.0	 4.2	0.7001	0.7018; % PEL
	1157	 4.32	 0.0	 0.0	 0.0	 1.015872	 100.0	 1	 7.2	 1.44	0.7001	0.7018; % PEL
	513	 6.6	 3.0	 5.0	 1.0	 1.0	 100.0	 1	 11.0	 2.2	0.5173	0.5177; % NG
	513	 6.6	 3.0	 5.0	 1.0	 1.0	 100.0	 1	 11.0	 2.2	0.5173	0.5177; % NG
	371	 4.8	 0.0	 5.0	 -5.0	 0.999999	 100.0	 1	 8.0	 1.6	0.8204	0.8230; % COW
	371	 4.8	 0.0	 5.0	 -5.0	 0.999999	 100.0	 1	 8.0	 1.6	0.7001	0.7018; % PEL
	976	 21.0	 -1.5	 12.0	 -15.0	 1.015872	 100.0	 1	 35.0	 7.0	0.7001	0.7018; % PEL
	976	 21.0	 -1.5	 12.0	 -15.0	 1.015872	 100.0	 1	 35.0	 7.0	0.5173	0.5177; % NG
	2754	 6.9	 0.0	 0.0	 0.0	 1.019477	 100.0	 1	 11.5	 2.3	0.5173	0.5177; % NG
	749	 5.1	 0.0	 5.0	 -5.0	 0.9444445	 100.0	 1	 8.5	 1.7	0.5173	0.5177; % NG
	1188	 12.0	 1.95	 2.0	 1.9	 1.004635	 100.0	 1	 20.0	 4.0	0.5173	0.5177; % NG
	1254	 14.4	 0.0	 7.0	 -7.0	 1.001289	 100.0	 1	 24.0	 4.8	0.7001	0.7018; % PEL
	252	 6.6	 1.5	 8.0	 -5.0	 0.9444445	 100.0	 1	 11.0	 2.2	0.5173	0.5177; % NG
	252	 5.4	 0.5	 6.0	 -5.0	 0.9444445	 100.0	 1	 9.0	 1.8	0.7001	0.7018; % PEL
	252	 6.6	 1.5	 8.0	 -5.0	 0.9444445	 100.0	 1	 11.0	 2.2	0.7001	0.7018; % PEL
	252	 5.4	 0.5	 6.0	 -5.0	 0.9444445	 100.0	 1	 9.0	 1.8	0.5173	0.5177; % NG
	504	 7.44	 0.0	 6.5	 -6.5	 0.9445145	 100.0	 1	 12.4	 2.48	0.5173	0.5177; % NG
	115	 15.18	 0.0	 0.0	 0.0	 0.9888895	 100.0	 1	 25.3	 5.06	0.8204	0.8230; % COW
	967	 1.15	 0.0	 0.0	 0.0	 1.0000025	 100.0	 1	 2.3	 0.0	0.7001	0.7018; % PEL
	1642	 1.5	 0.0	 1.0	 -1.0	 1.017742	 100.0	 1	 3.0	 0.0	0.7001	0.7018; % PEL
	1811	 5.4	 0.0	 5.5	 -5.5	 1.003809	 100.0	 1	 9.0	 1.8	0.5173	0.5177; % NG
	2634	 8.4	 0.0	 7.0	 -7.0	 1.0000025	 100.0	 1	 14.0	 2.8	0.7001	0.7018; % PEL
	326	 8.4	 0.0	 7.0	 -7.0	 1.0000025	 100.0	 1	 14.0	 2.8	0.5173	0.5177; % NG
	1829	 7.68	 0.0	 7.7	 -7.7	 0.999999	 100.0	 1	 12.8	 2.56	0.5173	0.5177; % NG
	1314	 23.4	 0.0	 19.0	 -19.0	 1.005695	 100.0	 1	 39.0	 7.8	0.5173	0.5177; % NG
	71	 18.0	 3.0	 10.0	 -4.0	 1.004425	 100.0	 1	 30.0	 6.0	0.7001	0.7018; % PEL
	93	 3.6	 1.95	 2.0	 1.9	 1.004535	 100.0	 1	 6.0	 1.2	0.5173	0.5177; % NG
	129	 6.6	 0.0	 4.0	 -4.0	 0.999999	 100.0	 1	 11.0	 2.2	0.5173	0.5177; % NG
	1594	 7.2	 0.0	 5.0	 -5.0	 1.021962	 100.0	 1	 12.0	 2.4	0.7001	0.7018; % PEL
	1594	 7.2	 0.0	 5.0	 -5.0	 1.021962	 100.0	 1	 12.0	 2.4	0.5173	0.5177; % NG
	1354	 2.5	 0.0	 2.0	 -2.0	 1.015872	 100.0	 1	 5.0	 0.0	0.7001	0.7018; % PEL
	1133	 10.35	 0.0	 0.0	 0.0	 1.015872	 100.0	 1	 17.25	 3.45	0.7001	0.7018; % PEL
	1405	 22.68	 2.0	 12.0	 -8.0	 1.0	 100.0	 1	 37.8	 7.56	0.7001	0.7018; % PEL
	2850	 22.68	 2.0	 12.0	 -8.0	 1.0	 100.0	 1	 37.8	 7.56	0.5173	0.5177; % NG
	2849	 22.68	 2.0	 12.0	 -8.0	 1.0	 100.0	 1	 37.8	 7.56	0.5173	0.5177; % NG
	1122	 4.14	 0.0	 0.0	 0.0	 1.015872	 100.0	 1	 6.9	 1.38	0.7001	0.7018; % PEL
	1708	 44.5	 9.0	 27.0	 -9.0	 1.0377785	 100.0	 1	 45.0	 44.0	0.8204	0.8230; % COW
	1708	 44.5	 9.0	 27.0	 -9.0	 1.0377785	 100.0	 1	 45.0	 44.0	0.7001	0.7018; % PEL
	1658	 17.94	 0.0	 0.0	 0.0	 1.0000025	 100.0	 1	 29.9	 5.98	0.7001	0.7018; % PEL
	2884	 8.22	 0.0	 0.0	 0.0	 1.0000025	 100.0	 1	 13.7	 2.74	0.8204	0.8230; % COW
	1154	 12.48	 0.0	 0.0	 0.0	 0.999999	 100.0	 1	 20.8	 4.16	0.7001	0.7018; % PEL
	231	 4.98	 0.0	 8.3	 -8.3	 1.0111115	 100.0	 1	 8.3	 1.66	0.5173	0.5177; % NG
	2887	 14.22	 2.0	 7.0	 -3.0	 1.0	 100.0	 1	 23.7	 4.74	0.7001	0.7018; % PEL
	2888	 14.22	 2.0	 7.0	 -3.0	 1.0	 100.0	 1	 23.7	 4.74	0.5173	0.5177; % NG
	2889	 14.22	 2.0	 7.0	 -3.0	 1.0	 100.0	 1	 23.7	 4.74	0.7001	0.7018; % PEL
	1666	 14.22	 2.0	 7.0	 -3.0	 1.0	 100.0	 1	 23.7	 4.74	0.7001	0.7018; % PEL
	499	 10.2	 0.95	 1.0	 0.9	 1.0287175	 100.0	 1	 17.0	 3.4	0.7001	0.7018; % PEL
	499	 0.0	 0.0	 1.0	 0.9	 1.0287175	 100.0	 0	 7.0	 1.4	0.8204	0.8230; % COW
	499	 10.2	 0.95	 1.0	 0.9	 1.0287175	 100.0	 1	 17.0	 3.4	0.5173	0.5177; % NG
	2709	 14.4	 0.0	 4.0	 -4.0	 1.0	 100.0	 1	 24.0	 4.8	0.7001	0.7018; % PEL
	709	 14.4	 0.0	 4.0	 -4.0	 1.0	 100.0	 1	 24.0	 4.8	0.5173	0.5177; % NG
	2710	 14.4	 0.0	 4.0	 -4.0	 1.0	 100.0	 1	 24.0	 4.8	0.8204	0.8230; % COW
	2708	 14.4	 0.0	 4.0	 -4.0	 1.0	 100.0	 1	 24.0	 4.8	0.7001	0.7018; % PEL
	1280	 10.8	 0.0	 0.0	 0.0	 1.001694	 100.0	 1	 18.0	 3.6	0.7001	0.7018; % PEL
	1493	 0.0	 0.0	 11.0	 -11.0	 0.9444445	 100.0	 0	 18.0	 3.6	0.7001	0.7018; % PEL
	745	 17.4	 -5.0	 8.0	 -18.0	 0.999999	 100.0	 1	 29.0	 5.8	0.5173	0.5177; % NG
	2727	 17.4	 -6.5	 5.0	 -18.0	 0.999999	 100.0	 1	 29.0	 5.8	0.7001	0.7018; % PEL
	1445	 33.0	 0.0	 0.0	 0.0	 1.026667	 100.0	 1	 55.0	 11.0	0.5173	0.5177; % NG
	564	 6.0	 0.0	 0.0	 0.0	 1.015872	 100.0	 1	 10.0	 2.0	0.5173	0.5177; % NG
	1047	 7.2	 0.0	 0.0	 0.0	 1.000539	 100.0	 1	 12.0	 2.4	0.7001	0.7018; % PEL
	1047	 1.0	 0.0	 0.0	 0.0	 1.000539	 100.0	 1	 2.0	 0.0	0.7001	0.7018; % PEL
	1335	 1.0	 1.0	 3.0	 -1.0	 1.003809	 100.0	 1	 2.0	 0.0	0.7001	0.7018; % PEL
	2624	 18.6	 -1.0	 15.0	 -17.0	 1.0	 100.0	 1	 31.0	 6.2	0.7001	0.7018; % PEL
	298	 18.6	 -1.0	 15.0	 -17.0	 1.0	 100.0	 1	 31.0	 6.2	0.5173	0.5177; % NG
	298	 18.6	 -1.0	 15.0	 -17.0	 1.0	 100.0	 1	 31.0	 6.2	0.5173	0.5177; % NG
	2625	 18.6	 -1.0	 15.0	 -17.0	 1.0	 100.0	 1	 31.0	 6.2	0.5173	0.5177; % NG
	2625	 18.6	 -1.0	 15.0	 -17.0	 1.0	 100.0	 1	 31.0	 6.2	0.7001	0.7018; % PEL
	2624	 18.6	 -1.0	 15.0	 -17.0	 1.0	 100.0	 1	 31.0	 6.2	0.7001	0.7018; % PEL
	2947	 14.4	 -0.005	 0.0	 -0.01	 1.0	 100.0	 1	 24.0	 4.8	0.7001	0.7018; % PEL
	2718	 14.4	 0.5	 8.0	 -7.0	 1.0	 100.0	 1	 24.0	 4.8	0.7001	0.7018; % PEL
	2720	 14.4	 0.5	 8.0	 -7.0	 1.0	 100.0	 1	 24.0	 4.8	0.5173	0.5177; % NG
	741	 14.4	 0.5	 8.0	 -7.0	 1.0	 100.0	 1	 24.0	 4.8	0.8204	0.8230; % COW
	2719	 14.4	 0.5	 8.0	 -7.0	 1.0	 100.0	 1	 24.0	 4.8	0.7001	0.7018; % PEL
	2721	 14.4	 0.5	 8.0	 -7.0	 1.0	 100.0	 1	 24.0	 4.8	0.5173	0.5177; % NG
	283	 14.1	 0.0	 8.0	 -8.0	 0.9888895	 100.0	 1	 23.5	 4.7	0.7001	0.7018; % PEL
	1506	 16.2	 -2.5	 6.0	 -11.0	 1.016412	 100.0	 1	 27.0	 5.4	0.7001	0.7018; % PEL
	1506	 16.2	 -2.5	 6.0	 -11.0	 1.016412	 100.0	 1	 27.0	 5.4	0.7001	0.7018; % PEL
	1847	 19.2	 2.0	 12.0	 -8.0	 1.015872	 100.0	 1	 32.0	 6.4	0.7001	0.7018; % PEL
	1398	 12.01	 0.0	 0.0	 0.0	 1.0000025	 100.0	 1	 20.02	 4.0	0.7001	0.7018; % PEL
	1398	 12.21	 0.0	 0.0	 0.0	 1.0000025	 100.0	 1	 20.35	 4.07	0.5173	0.5177; % NG
	225	 27.0	 0.0	 45.0	 -45.0	 1.0	 100.0	 1	 45.0	 9.0	0.7001	0.7018; % PEL
	225	 27.0	 0.0	 45.0	 -45.0	 1.0	 100.0	 1	 45.0	 9.0	0.5173	0.5177; % NG
	1607	 0.87	 0.0	 0.0	 0.0	 1.0000025	 100.0	 1	 1.74	 0.0	0.7001	0.7018; % PEL
	314	 12.0	 0.0	 10.0	 -10.0	 0.9448795	 100.0	 1	 20.0	 4.0	0.5173	0.5177; % NG
	2680	 141.5	 20.0	 100.0	 -60.0	 1.0	 100.0	 1	 239.0	 44.0	0.8204	0.8230; % COW
	582	 0.0	 0.0	 70.0	 -45.0	 1.0	 100.0	 0	 169.0	 82.0	0.7001	0.7018; % PEL
	2978	 0.0	 0.0	 70.0	 -45.0	 1.0	 100.0	 0	 169.0	 82.0	0.5173	0.5177; % NG
	2977	 141.5	 20.0	 100.0	 -60.0	 1.0	 100.0	 1	 239.0	 44.0	0.5173	0.5177; % NG
	240	 143.4	 2.5	 80.0	 -75.0	 1.05347	 100.0	 1	 239.0	 47.8	0.5173	0.5177; % NG
	1655	 7.2	 0.0	 0.0	 0.0	 0.999999	 100.0	 1	 12.0	 2.4	0.7001	0.7018; % PEL
	1655	 2.0	 0.0	 0.0	 0.0	 0.999999	 100.0	 1	 4.0	 0.0	0.5173	0.5177; % NG
	1150	 32.4	 0.0	 0.0	 0.0	 1.0377785	 100.0	 1	 54.0	 10.8	0.5173	0.5177; % NG
	1447	 4.2	 -0.5	 2.0	 -3.0	 1.015872	 100.0	 1	 7.0	 1.4	0.7001	0.7018; % PEL
	906	 0.0	 0.0	 8.0	 -8.0	 1.04623	 100.0	 0	 21.0	 4.2	0.7001	0.7018; % PEL
	1474	 0.0	 -0.0	 1.0	 -1.0	 1.015872	 100.0	 0	 2.0	 0.0	0.7001	0.7018; % PEL
	1474	 4.8	 0.0	 3.0	 -3.0	 1.015872	 100.0	 1	 8.0	 1.6	0.7001	0.7018; % PEL
	1474	 4.8	 0.0	 3.0	 -3.0	 1.015872	 100.0	 1	 8.0	 1.6	0.8204	0.8230; % COW
	963	 5.34	 -0.5	 1.0	 -2.0	 1.015872	 100.0	 1	 8.9	 1.78	0.5173	0.5177; % NG
	962	 13.2	 0.0	 0.0	 0.0	 1.0000025	 100.0	 1	 22.0	 4.4	0.5173	0.5177; % NG
	923	 7.2	 0.0	 5.0	 -5.0	 1.015872	 100.0	 1	 12.0	 2.4	0.5173	0.5177; % NG
	1153	 9.6	 0.0	 17.3	 -17.3	 1.001654	 100.0	 1	 16.0	 3.2	0.7001	0.7018; % PEL
	1153	 10.08	 0.0	 10.0	 -10.0	 1.001654	 100.0	 1	 16.8	 3.36	0.7001	0.7018; % PEL
	274	 4.02	 0.0	 3.7	 -3.7	 0.999999	 100.0	 1	 6.7	 1.34	0.5173	0.5177; % NG
	274	 3.36	 0.0	 3.0	 -3.0	 0.999999	 100.0	 1	 5.6	 1.12	0.5173	0.5177; % NG
	1776	 6.0	 0.0	 5.0	 -5.0	 1.015872	 100.0	 1	 10.0	 2.0	0.5173	0.5177; % NG
	1776	 6.0	 0.0	 5.0	 -5.0	 1.015872	 100.0	 1	 10.0	 2.0	0.5173	0.5177; % NG
	184	 14.04	 -4.5	 8.0	 -17.0	 1.033334	 100.0	 1	 23.4	 4.68	0.5173	0.5177; % NG
	1657	 15.6	 -0.5	 16.0	 -17.0	 1.0233335	 100.0	 1	 26.0	 5.2	0.5173	0.5177; % NG
	1657	 15.6	 -0.5	 16.0	 -17.0	 1.0233335	 100.0	 1	 26.0	 5.2	0.7001	0.7018; % PEL
	1761	 1.25	 0.0	 0.1	 -0.1	 1.00445	 100.0	 1	 2.5	 0.0	0.7001	0.7018; % PEL
	1761	 6.6	 0.95	 1.0	 0.9	 1.00445	 100.0	 1	 11.0	 2.2	0.5173	0.5177; % NG
	1868	 18.0	 0.0	 18.0	 -18.0	 0.999999	 100.0	 1	 30.0	 6.0	0.7001	0.7018; % PEL
	1868	 18.0	 0.0	 18.0	 -18.0	 0.999999	 100.0	 1	 30.0	 6.0	0.5173	0.5177; % NG
	731	 0.0	 0.0	 26.0	 -26.0	 0.999999	 100.0	 0	 43.0	 8.6	0.8204	0.8230; % COW
	2715	 0.0	 0.0	 20.0	 -20.0	 0.999999	 100.0	 0	 38.0	 7.6	0.5173	0.5177; % NG
	1263	 13.86	 0.0	 14.0	 -14.0	 0.999999	 100.0	 1	 23.1	 4.62	0.7001	0.7018; % PEL
	1263	 13.86	 0.0	 14.0	 -14.0	 0.999999	 100.0	 1	 23.1	 4.62	0.7001	0.7018; % PEL
	161	 10.8	 0.0	 5.0	 -5.0	 0.975	 100.0	 1	 18.0	 3.6	0.7001	0.7018; % PEL
	604	 6.12	 0.0	 6.0	 -6.0	 0.999999	 100.0	 1	 10.2	 2.04	0.5173	0.5177; % NG
	918	 15.6	 0.0	 0.0	 0.0	 1.0000025	 100.0	 1	 26.0	 5.2	0.8204	0.8230; % COW
	1760	 6.9	 0.0	 1.0	 -1.0	 1.0013775	 100.0	 1	 11.5	 2.3	0.5173	0.5177; % NG
	1760	 6.9	 0.0	 1.0	 -1.0	 1.0013775	 100.0	 1	 11.5	 2.3	0.5173	0.5177; % NG
	1414	 7.8	 0.0	 7.8	 -7.8	 0.999999	 100.0	 1	 13.0	 2.6	0.5173	0.5177; % NG
	1414	 7.2	 0.0	 7.2	 -7.2	 0.999999	 100.0	 1	 12.0	 2.4	0.7001	0.7018; % PEL
	662	 24.0	 1.0	 20.0	 -18.0	 1.0	 100.0	 1	 40.0	 8.0	0.5173	0.5177; % NG
	2697	 24.0	 1.0	 20.0	 -18.0	 1.0	 100.0	 1	 40.0	 8.0	0.5173	0.5177; % NG
	2696	 24.0	 1.0	 20.0	 -18.0	 1.0	 100.0	 1	 40.0	 8.0	0.5173	0.5177; % NG
	1346	 7.2	 0.0	 7.0	 -7.0	 0.999999	 100.0	 1	 12.0	 2.4	0.5173	0.5177; % NG
	1346	 7.2	 0.0	 7.0	 -7.0	 0.999999	 100.0	 1	 12.0	 2.4	0.5173	0.5177; % NG
	2622	 4.8	 0.0	 26.0	 -26.0	 1.0	 100.0	 1	 8.0	 1.6	0.5173	0.5177; % NG
	2622	 9.0	 0.0	 26.0	 -26.0	 1.0	 100.0	 1	 15.0	 3.0	0.5173	0.5177; % NG
	291	 11.4	 0.0	 26.0	 -26.0	 1.0	 100.0	 1	 19.0	 3.8	0.7001	0.7018; % PEL
	1490	 6.36	 0.0	 6.5	 -6.5	 0.999999	 100.0	 1	 10.6	 2.12	0.5173	0.5177; % NG
	1671	 12.84	 0.0	 15.0	 -15.0	 1.0158755	 100.0	 1	 21.4	 4.28	0.5173	0.5177; % NG
	1615	 0.0	 0.0	 24.0	 -24.0	 0.999999	 100.0	 0	 39.0	 7.8	0.8204	0.8230; % COW
	1681	 52.2	 0.87	 26.1	 -24.36	 1.044445	 100.0	 1	 87.0	 17.4	0.8204	0.8230; % COW
	418	 45.0	 5.0	 50.0	 -40.0	 1.0	 100.0	 1	 75.0	 15.0	0.7001	0.7018; % PEL
	2658	 45.0	 5.0	 50.0	 -40.0	 1.0	 100.0	 1	 75.0	 15.0	0.5173	0.5177; % NG
	418	 45.0	 5.0	 50.0	 -40.0	 1.0	 100.0	 1	 75.0	 15.0	0.5173	0.5177; % NG
	2658	 45.0	 5.0	 50.0	 -40.0	 1.0	 100.0	 1	 75.0	 15.0	0.7001	0.7018; % PEL
	461	 24.84	 0.415	 12.42	 -11.59	 1.044445	 100.0	 1	 41.4	 8.28	0.5173	0.5177; % NG
	31	 4.01	 0.0	 0.0	 0.0	 1.004309	 100.0	 1	 6.68	 1.34	0.5173	0.5177; % NG
	236	 9.0	 3.5	 7.0	 0.0	 1.015872	 100.0	 1	 15.0	 3.0	0.7001	0.7018; % PEL
	236	 9.0	 3.5	 7.0	 0.0	 1.015872	 100.0	 1	 15.0	 3.0	0.7001	0.7018; % PEL
	1754	 0.5	 0.0	 1.0	 -1.0	 1.015872	 100.0	 1	 1.0	 0.0	0.7001	0.7018; % PEL
	1754	 0.5	 0.0	 1.0	 -1.0	 1.015872	 100.0	 1	 1.0	 0.0	0.7001	0.7018; % PEL
	1754	 0.5	 0.0	 1.0	 -1.0	 1.015872	 100.0	 1	 1.0	 0.0	0.7001	0.7018; % PEL
	898	 0.85	 0.0	 0.0	 0.0	 1.001324	 100.0	 1	 1.7	 0.0	0.5173	0.5177; % NG
	898	 13.56	 0.0	 0.0	 0.0	 1.001324	 100.0	 1	 22.6	 4.52	0.5173	0.5177; % NG
	120	 9.0	 0.0	 9.0	 -9.0	 1.002569	 100.0	 1	 15.0	 3.0	0.5173	0.5177; % NG
	549	 27.5	 6.0	 22.0	 -10.0	 1.015872	 100.0	 1	 50.0	 5.0	0.5173	0.5177; % NG
	77	 14.1	 0.0	 0.0	 0.0	 1.0027225	 100.0	 1	 23.5	 4.7	0.7001	0.7018; % PEL
	124	 -3.5	 0.0	 0.0	 0.0	 1.0013325	 100.0	 1	 0.0	 -7.0	0.0000	0.0000; % SYNC
	124	 -3.5	 0.0	 0.0	 0.0	 1.0013325	 100.0	 1	 0.0	 -7.0	0.0000	0.0000; % SYNC
	552	 12.6	 0.0	 0.0	 0.0	 1.015872	 100.0	 1	 21.0	 4.2	0.5173	0.5177; % NG
	1858	 5.76	 0.0	 6.0	 -6.0	 0.9444445	 100.0	 1	 9.6	 1.92	0.8204	0.8230; % COW
	134	 15.0	 2.0	 13.0	 -9.0	 1.0233335	 100.0	 1	 25.0	 5.0	0.7001	0.7018; % PEL
	1204	 25.2	 2.5	 25.0	 -20.0	 1.00031	 100.0	 1	 42.0	 8.4	0.5173	0.5177; % NG
	1204	 25.2	 2.5	 25.0	 -20.0	 1.00031	 100.0	 1	 42.0	 8.4	0.5173	0.5177; % NG
	641	 6.6	 0.0	 5.0	 -5.0	 1.015872	 100.0	 1	 11.0	 2.2	0.5173	0.5177; % NG
	641	 6.6	 0.0	 5.0	 -5.0	 1.015872	 100.0	 1	 11.0	 2.2	0.5173	0.5177; % NG
...
];

%% generator cost data
%	2	startup	shutdown	n	c(n-1)	...	c0
mpc.gencost = [
	2	 0.0	 0.0	 3	   0.000000	  44.799484	   0.000000; % NG
	2	 0.0	 0.0	 3	   0.000000	 103.296155	   0.000000; % PEL
	2	 0.0	 0.0	 3	   0.000000	 133.455196	   0.000000; % PEL
	2	 0.0	 0.0	 3	   0.000000	  34.971862	   0.000000; % NG
	2	 0.0	 0.0	 3	   0.000000	  16.008364	   0.000000; % COW
	2	 0.0	 0.0	 3	   0.000000	 102.186830	   0.000000; % PEL
	2	 0.0	 0.0	 3	   0.000000	  15.953518	   0.000000; % NG
	2	 0.0	 0.0	 3	   0.000000	  32.141291	   0.000000; % NG
	2	 0.0	 0.0	 3	   0.000000	  29.183767	   0.000000; % COW
	2	 0.0	 0.0	 3	   0.000000	  23.853833	   0.000000; % NG
	2	 0.0	 0.0	 3	   0.000000	 118.582641	   0.000000; % PEL
	2	 0.0	 0.0	 3	   0.000000	  30.823457	   0.000000; % NG
	2	 0.0	 0.0	 3	   0.000000	  33.549390	   0.000000; % COW
	2	 0.0	 0.0	 3	   0.000000	  39.990137	   0.000000; % NG
	2	 0.0	 0.0	 3	   0.000000	  47.299290	   0.000000; % NG
	2	 0.0	 0.0	 3	   0.000000	  28.709766	   0.000000; % NG
	2	 0.0	 0.0	 3	   0.000000	  19.392425	   0.000000; % COW
	2	 0.0	 0.0	 3	   0.000000	  26.184513	   0.000000; % NG
	2	 0.0	 0.0	 3	   0.000000	  33.437829	   0.000000; % COW
	2	 0.0	 0.0	 3	   0.000000	 108.330250	   0.000000; % PEL
	2	 0.0	 0.0	 3	   0.000000	  26.230713	   0.000000; % COW
	2	 0.0	 0.0	 3	   0.000000	 103.635089	   0.000000; % PEL
	2	 0.0	 0.0	 3	   0.000000	  24.241333	   0.000000; % NG
	2	 0.0	 0.0	 3	   0.000000	  29.153992	   0.000000; % NG
	2	 0.0	 0.0	 3	   0.000000	 124.946912	   0.000000; % PEL
	2	 0.0	 0.0	 3	   0.000000	  68.707038	   0.000000; % NG
	2	 0.0	 0.0	 3	   0.000000	  26.704666	   0.000000; % NG
	2	 0.0	 0.0	 3	   0.000000	  27.882410	   0.000000; % NG
	2	 0.0	 0.0	 3	   0.000000	   3.122472	   0.000000; % NG
	2	 0.0	 0.0	 3	   0.000000	  60.036951	   0.000000; % NG
	2	 0.0	 0.0	 3	   0.000000	 111.709549	   0.000000; % PEL
	2	 0.0	 0.0	 3	   0.000000	  23.931234	   0.000000; % COW
	2	 0.0	 0.0	 3	   0.000000	  95.991511	   0.000000; % PEL
	2	 0.0	 0.0	 3	   0.000000	  28.164012	   0.000000; % NG
	2	 0.0	 0.0	 3	   0.000000	  23.898663	   0.000000; % NG
	2	 0.0	 0.0	 3	   0.000000	  29.990273	   0.000000; % COW
	2	 0.0	 0.0	 3	   0.000000	  21.640102	   0.000000; % NG
	2	 0.0	 0.0	 3	   0.000000	  99.501055	   0.000000; % PEL
	2	 0.0	 0.0	 3	   0.000000	  42.286445	   0.000000; % NG
	2	 0.0	 0.0	 3	   0.000000	 107.620861	   0.000000; % PEL
	2	 0.0	 0.0	 3	   0.000000	 125.453061	   0.000000; % PEL
	2	 0.0	 0.0	 3	   0.000000	  28.264565	   0.000000; % NG
	2	 0.0	 0.0	 3	   0.000000	  28.379323	   0.000000; % NG
	2	 0.0	 0.0	 3	   0.000000	  28.436306	   0.000000; % COW
	2	 0.0	 0.0	 3	   0.000000	 103.391635	   0.000000; % PEL
	2	 0.0	 0.0	 3	   0.000000	 127.850488	   0.000000; % PEL
	2	 0.0	 0.0	 3	   0.000000	  43.820274	   0.000000; % NG
	2	 0.0	 0.0	 3	   0.000000	  47.760568	   0.000000; % NG
	2	 0.0	 0.0	 3	   0.000000	  47.344597	   0.000000; % NG
	2	 0.0	 0.0	 3	   0.000000	  37.770921	   0.000000; % NG
	2	 0.0	 0.0	 3	   0.000000	 114.570030	   0.000000; % PEL
	2	 0.0	 0.0	 3	   0.000000	  32.013476	   0.000000; % NG
	2	 0.0	 0.0	 3	   0.000000	  99.587093	   0.000000; % PEL
	2	 0.0	 0.0	 3	   0.000000	 119.827760	   0.000000; % PEL
	2	 0.0	 0.0	 3	   0.000000	   9.006238	   0.000000; % NG
	2	 0.0	 0.0	 3	   0.000000	  31.739316	   0.000000; % NG
	2	 0.0	 0.0	 3	   0.000000	  36.171553	   0.000000; % COW
	2	 0.0	 0.0	 3	   0.000000	 128.098168	   0.000000; % PEL
	2	 0.0	 0.0	 3	   0.000000	  97.377789	   0.000000; % PEL
	2	 0.0	 0.0	 3	   0.000000	  57.036401	   0.000000; % NG
	2	 0.0	 0.0	 3	   0.000000	 116.415321	   0.000000; % PEL
	2	 0.0	 0.0	 3	   0.000000	  33.024981	   0.000000; % NG
	2	 0.0	 0.0	 3	   0.000000	  30.752053	   0.000000; % NG
	2	 0.0	 0.0	 3	   0.000000	  33.988394	   0.000000; % NG
	2	 0.0	 0.0	 3	   0.000000	  99.494826	   0.000000; % PEL
	2	 0.0	 0.0	 3	   0.000000	  37.844010	   0.000000; % NG
	2	 0.0	 0.0	 3	   0.000000	  25.499729	   0.000000; % NG
	2	 0.0	 0.0	 3	   0.000000	 102.949110	   0.000000; % PEL
	2	 0.0	 0.0	 3	   0.000000	  11.961915	   0.000000; % NG
	2	 0.0	 0.0	 3	   0.000000	 101.523604	   0.000000; % PEL
	2	 0.0	 0.0	 3	   0.000000	 104.377305	   0.000000; % PEL
	2	 0.0	 0.0	 3	   0.000000	 108.463193	   0.000000; % PEL
	2	 0.0	 0.0	 3	   0.000000	  37.951754	   0.000000; % NG
	2	 0.0	 0.0	 3	   0.000000	  34.833311	   0.000000; % NG
	2	 0.0	 0.0	 3	   0.000000	 115.578599	   0.000000; % PEL
	2	 0.0	 0.0	 3	   0.000000	  14.427786	   0.000000; % COW
	2	 0.0	 0.0	 3	   0.000000	 120.524875	   0.000000; % PEL
	2	 0.0	 0.0	 3	   0.000000	 124.985551	   0.000000; % PEL
	2	 0.0	 0.0	 3	   0.000000	  19.400343	   0.000000; % COW
	2	 0.0	 0.0	 3	   0.000000	  90.373394	   0.000000; % PEL
	2	 0.0	 0.0	 3	   0.000000	  20.052340	   0.000000; % NG
	2	 0.0	 0.0	 3	   0.000000	 107.933814	   0.000000; % PEL
	2	 0.0	 0.0	 3	   0.000000	  22.005869	   0.000000; % NG
	2	 0.0	 0.0	 3	   0.000000	 116.828596	   0.000000; % PEL
	2	 0.0	 0.0	 3	   0.000000	 100.566682	   0.000000; % PEL
	2	 0.0	 0.0	 3	   0.000000	 104.746350	   0.000000; % PEL
	2	 0.0	 0.0	 3	   0.000000	  25.791232	   0.000000; % COW
	2	 0.0	 0.0	 3	   0.000000	  33.981563	   0.000000; % NG
	2	 0.0	 0.0	 3	   0.000000	 109.189943	   0.000000; % PEL
	2	 0.0	 0.0	 3	   0.000000	  21.397310	   0.000000; % NG
	2	 0.0	 0.0	 3	   0.000000	  33.295795	   0.000000; % COW
	2	 0.0	 0.0	 3	   0.000000	 104.462662	   0.000000; % PEL
	2	 0.0	 0.0	 3	   0.000000	 103.558096	   0.000000; % PEL
	2	 0.0	 0.0	 3	   0.000000	 114.531843	   0.000000; % PEL
	2	 0.0	 0.0	 3	   0.000000	  38.571527	   0.000000; % NG
	2	 0.0	 0.0	 3	   0.000000	 107.259574	   0.000000; % PEL
	2	 0.0	 0.0	 3	   0.000000	  41.652072	   0.000000; % NG
	2	 0.0	 0.0	 3	   0.000000	  36.465111	   0.000000; % NG
	2	 0.0	 0.0	 3	   0.000000	 104.247680	   0.000000; % PEL
	2	 0.0	 0.0	 3	   0.000000	 119.116253	   0.000000; % PEL
	2	 0.0	 0.0	 3	   0.000000	 110.375312	   0.000000; % PEL
	2	 0.0	 0.0	 3	   0.000000	 114.402174	   0.000000; % PEL
	2	 0.0	 0.0	 3	   0.000000	  26.042437	   0.000000; % NG
	2	 0.0	 0.0	 3	   0.000000	  52.028607	   0.000000; % NG
	2	 0.0	 0.0	 3	   0.000000	  27.225852	   0.000000; % NG
	2	 0.0	 0.0	 3	   0.000000	 106.469686	   0.000000; % PEL
	2	 0.0	 0.0	 3	   0.000000	 121.847544	   0.000000; % PEL
	2	 0.0	 0.0	 3	   0.000000	 108.458154	   0.000000; % PEL
	2	 0.0	 0.0	 3	   0.000000	 106.396544	   0.000000; % PEL
	2	 0.0	 0.0	 3	   0.000000	  24.492020	   0.000000; % NG
	2	 0.0	 0.0	 3	   0.000000	  20.020401	   0.000000; % COW
	2	 0.0	 0.0	 3	   0.000000	 121.534834	   0.000000; % PEL
	2	 0.0	 0.0	 3	   0.000000	  20.892690	   0.000000; % NG
	2	 0.0	 0.0	 3	   0.000000	  98.444260	   0.000000; % PEL
	2	 0.0	 0.0	 3	   0.000000	 128.595595	   0.000000; % PEL
	2	 0.0	 0.0	 3	   0.000000	  92.822681	   0.000000; % PEL
	2	 0.0	 0.0	 3	   0.000000	 111.253342	   0.000000; % PEL
	2	 0.0	 0.0	 3	   0.000000	 112.169112	   0.000000; % PEL
	2	 0.0	 0.0	 3	   0.000000	  18.465033	   0.000000; % NG
	2	 0.0	 0.0	 3	   0.000000	 116.124143	   0.000000; % PEL
	2	 0.0	 0.0	 3	   0.000000	  38.326755	   0.000000; % NG
	2	 0.0	 0.0	 3	   0.000000	 114.380245	   0.000000; % PEL
	2	 0.0	 0.0	 3	   0.000000	  40.389120	   0.000000; % NG
	2	 0.0	 0.0	 3	   0.000000	  29.373328	   0.000000; % COW
	2	 0.0	 0.0	 3	   0.000000	 102.044459	   0.000000; % PEL
	2	 0.0	 0.0	 3	   0.000000	  32.945699	   0.000000; % NG
	2	 0.0	 0.0	 3	   0.000000	  20.577052	   0.000000; % NG
	2	 0.0	 0.0	 3	   0.000000	  51.797149	   0.000000; % NG
	2	 0.0	 0.0	 3	   0.000000	 108.075500	   0.000000; % PEL
	2	 0.0	 0.0	 3	   0.000000	  26.536594	   0.000000; % NG
	2	 0.0	 0.0	 3	   0.000000	  30.544208	   0.000000; % NG
	2	 0.0	 0.0	 3	   0.000000	 121.489265	   0.000000; % PEL
	2	 0.0	 0.0	 3	   0.000000	  96.092215	   0.000000; % PEL
	2	 0.0	 0.0	 3	   0.000000	 104.520289	   0.000000; % PEL
	2	 0.0	 0.0	 3	   0.000000	 102.476900	   0.000000; % PEL
	2	 0.0	 0.0	 3	   0.000000	  18.523867	   0.000000; % COW
	2	 0.0	 0.0	 3	   0.000000	   5.901389	   0.000000; % NG
	2	 0.0	 0.0	 3	   0.000000	  51.452745	   0.000000; % NG
	2	 0.0	 0.0	 3	   0.000000	  22.105878	   0.000000; % NG
	2	 0.0	 0.0	 3	   0.000000	 109.945515	   0.000000; % PEL
	2	 0.0	 0.0	 3	   0.000000	  95.652767	   0.000000; % PEL
	2	 0.0	 0.0	 3	   0.000000	  25.249984	   0.000000; % NG
	2	 0.0	 0.0	 3	   0.000000	  25.431253	   0.000000; % NG
	2	 0.0	 0.0	 3	   0.000000	  40.295404	   0.000000; % NG
	2	 0.0	 0.0	 3	   0.000000	  37.006516	   0.000000; % NG
	2	 0.0	 0.0	 3	   0.000000	  28.409357	   0.000000; % NG
	2	 0.0	 0.0	 3	   0.000000	  51.018648	   0.000000; % NG
	2	 0.0	 0.0	 3	   0.000000	 103.243210	   0.000000; % PEL
	2	 0.0	 0.0	 3	   0.000000	 106.556737	   0.000000; % PEL
	2	 0.0	 0.0	 3	   0.000000	  33.299717	   0.000000; % NG
	2	 0.0	 0.0	 3	   0.000000	 101.086629	   0.000000; % PEL
	2	 0.0	 0.0	 3	   0.000000	  32.433747	   0.000000; % NG
	2	 0.0	 0.0	 3	   0.000000	  26.309050	   0.000000; % COW
	2	 0.0	 0.0	 3	   0.000000	  38.102978	   0.000000; % NG
	2	 0.0	 0.0	 3	   0.000000	 129.975635	   0.000000; % PEL
	2	 0.0	 0.0	 3	   0.000000	 118.870177	   0.000000; % PEL
	2	 0.0	 0.0	 3	   0.000000	 119.611236	   0.000000; % PEL
	2	 0.0	 0.0	 3	   0.000000	  37.369756	   0.000000; % NG
	2	 0.0	 0.0	 3	   0.000000	  37.143663	   0.000000; % COW
	2	 0.0	 0.0	 3	   0.000000	  29.147531	   0.000000; % NG
	2	 0.0	 0.0	 3	   0.000000	  10.847489	   0.000000; % NG
	2	 0.0	 0.0	 3	   0.000000	  43.567399	   0.000000; % NG
	2	 0.0	 0.0	 3	   0.000000	  96.878349	   0.000000; % PEL
	2	 0.0	 0.0	 3	   0.000000	  50.230074	   0.000000; % NG
	2	 0.0	 0.0	 3	   0.000000	  19.708617	   0.000000; % NG
	2	 0.0	 0.0	 3	   0.000000	  32.465125	   0.000000; % NG
	2	 0.0	 0.0	 3	   0.000000	  37.248123	   0.000000; % NG
	2	 0.0	 0.0	 3	   0.000000	  57.897546	   0.000000; % NG
	2	 0.0	 0.0	 3	   0.000000	  38.548351	   0.000000; % NG
	2	 0.0	 0.0	 3	   0.000000	  25.674323	   0.000000; % NG
	2	 0.0	 0.0	 3	   0.000000	 105.602685	   0.000000; % PEL
	2	 0.0	 0.0	 3	   0.000000	  36.908456	   0.000000; % NG
	2	 0.0	 0.0	 3	   0.000000	  26.350641	   0.000000; % NG
	2	 0.0	 0.0	 3	   0.000000	  32.759528	   0.000000; % COW
	2	 0.0	 0.0	 3	   0.000000	  35.125286	   0.000000; % COW
	2	 0.0	 0.0	 3	   0.000000	 112.903501	   0.000000; % PEL
	2	 0.0	 0.0	 3	   0.000000	  35.780028	   0.000000; % NG
	2	 0.0	 0.0	 3	   0.000000	  34.509318	   0.000000; % NG
	2	 0.0	 0.0	 3	   0.000000	 104.643889	   0.000000; % PEL
	2	 0.0	 0.0	 3	   0.000000	  19.072458	   0.000000; % NG
	2	 0.0	 0.0	 3	   0.000000	  20.551347	   0.000000; % NG
	2	 0.0	 0.0	 3	   0.000000	 109.899886	   0.000000; % PEL
	2	 0.0	 0.0	 3	   0.000000	 117.575694	   0.000000; % PEL
	2	 0.0	 0.0	 3	   0.000000	 108.391758	   0.000000; % PEL
	2	 0.0	 0.0	 3	   0.000000	 110.287454	   0.000000; % PEL
	2	 0.0	 0.0	 3	   0.000000	 116.402421	   0.000000; % PEL
	2	 0.0	 0.0	 3	   0.000000	  32.281677	   0.000000; % NG
	2	 0.0	 0.0	 3	   0.000000	  24.936336	   0.000000; % NG
	2	 0.0	 0.0	 3	   0.000000	  34.627875	   0.000000; % NG
	2	 0.0	 0.0	 3	   0.000000	  29.079634	   0.000000; % NG
	2	 0.0	 0.0	 3	   0.000000	 114.987747	   0.000000; % PEL
	2	 0.0	 0.0	 3	   0.000000	   0.000000	   0.000000; % SYNC
	2	 0.0	 0.0	 3	   0.000000	   0.000000	   0.000000; % SYNC
	2	 0.0	 0.0	 3	   0.000000	  46.044674	   0.000000; % NG
	2	 0.0	 0.0	 3	   0.000000	  34.619523	   0.000000; % COW
	2	 0.0	 0.0	 3	   0.000000	 115.015285	   0.000000; % PEL
	2	 0.0	 0.0	 3	   0.000000	  45.023384	   0.000000; % NG
	2	 0.0	 0.0	 3	   0.000000	  57.259267	   0.000000; % NG
	2	 0.0	 0.0	 3	   0.000000	  26.528770	   0.000000; % NG
	2	 0.0	 0.0	 3	   0.000000	  25.436087	   0.000000; % NG
...
];

%% branch data
%	fbus	tbus	r	x	b	rateA	rateB	rateC	ratio	angle	status	angmin	angmax
mpc.branch = [
	639	 1	 0.005799	 0.010615	 0.0075	 2441	 2441	 2441	 0.0	 0.0	 1	 -30.0	 30.0;
	909	 2	 0.002607	 0.017462	 0.0324	 540.0	 540.0	 540.0	 0.0	 0.0	 1	 -30.0	 30.0;
	2575	 3	 2.1e-05	 0.000125	 0.1386	 737.0	 737.0	 737.0	 0.0	 0.0	 1	 -30.0	 30.0;
	875	 3	 0.000145	 0.001877	 0.0635	 2487.0	 2487.0	 2487.0	 0.0	 0.0	 1	 -30.0	 30.0;
	1710	 3	 0.000319	 0.003234	 0.0838	 1841.0	 1841.0	 1841.0	 0.0	 0.0	 1	 -30.0	 30.0;
	46	 3	 2.1e-05	 0.000125	 0.1386	 737.0	 737.0	 737.0	 0.0	 0.0	 1	 -30.0	 30.0;
	1073	 4	 0.037541	 0.100529	 0.0011	 284	 284	 284	 0.0	 0.0	 1	 -30.0	 30.0;
	1533	 4	 0.090199	 0.211388	 0.0023	 133	 133	 133	 0.0	 0.0	 1	 -30.0	 30.0;
	1658	 4	 0.09801	 0.267574	 0.0	 107	 107	 107	 0.0	 0.0	 1	 -30.0	 30.0;
	1370	 5	 0.009383	 0.019753	 0.0	 1194	 1194	 1194	 0.0	 0.0	 1	 -30.0	 30.0;
	1370	 6	 0.001975	 0.004444	 0.0	 5369	 5369	 5369	 0.0	 0.0	 1	 -30.0	 30.0;
	199	 7	 0.006163	 0.041067	 0.0759	 446.0	 446.0	 446.0	 0.0	 0.0	 1	 -30.0	 30.0;
	880	 7	 0.000652	 0.004369	 0.0081	 558.0	 558.0	 558.0	 0.0	 0.0	 1	 -30.0	 30.0;
	1061	 8	 0.067019	 0.137566	 0.0037	 193	 193	 193	 0.0	 0.0	 1	 -30.0	 30.0;
	1223	 8	 0.032754	 0.088939	 0.0039	 312	 312	 312	 0.0	 0.0	 1	 -30.0	 30.0;
	1223	 8	 0.030184	 0.080096	 0.0053	 345	 345	 345	 0.0	 0.0	 1	 -30.0	 30.0;
	1371	 10	 0.009733	 0.034089	 0.0185	 944	 944	 944	 0.0	 0.0	 1	 -30.0	 30.0;
	147	 11	 0.000277	 0.002015	 0.003	 288.0	 288.0	 288.0	 0.0	 0.0	 1	 -30.0	 30.0;
	387	 2571	 0.00881	 0.033995	 0.0607	 289.0	 289.0	 289.0	 0.0	 0.0	 1	 -30.0	 30.0;
	437	 2571	 0.004642	 0.019832	 0.0354	 255.0	 255.0	 255.0	 0.0	 0.0	 1	 -30.0	 30.0;
	955	 11	 0.008861	 0.03506	 0.0623	 288.0	 288.0	 288.0	 0.0	 0.0	 1	 -30.0	 30.0;
	991	 11	 0.006993	 0.032869	 0.0557	 255.0	 255.0	 255.0	 0.0	 0.0	 1	 -30.0	 30.0;
	1774	 2571	 0.002173	 0.008731	 0.0152	 3441	 3441	 3441	 0.0	 0.0	 1	 -30.0	 30.0;
	1817	 11	 0.00077	 0.003121	 0.0051	 9629	 9629	 9629	 0.0	 0.0	 1	 -30.0	 30.0;
	2092	 2571	 0.004109	 0.016138	 0.0284	 288.0	 288.0	 288.0	 0.0	 0.0	 1	 -30.0	 30.0;
	2591	 12	 8.3e-05	 0.000907	 0.0202	 1034.0	 1034.0	 1034.0	 0.0	 0.0	 1	 -30.0	 30.0;
	419	 12	 0.000552	 0.006726	 0.0939	 1786.0	 1786.0	 1786.0	 0.0	 0.0	 1	 -30.0	 30.0;
	808	 12	 0.000512	 0.008012	 0.2455	 2462.0	 2462.0	 2462.0	 0.0	 0.0	 1	 -30.0	 30.0;
	1158	 12	 0.001107	 0.00918	 0.1906	 1644.0	 1644.0	 1644.0	 0.0	 0.0	 1	 -30.0	 30.0;
	148	 12	 6.2e-05	 0.000741	 0.0173	 1095.0	 1095.0	 1095.0	 0.0	 0.0	 1	 -30.0	 30.0;
	808	 12	 0.000512	 0.008019	 0.2455	 2462.0	 2462.0	 2462.0	 0.0	 0.0	 1	 -30.0	 30.0;
	808	 12	 0.001153	 0.013123	 0.1841	 1433.0	 1433.0	 1433.0	 0.0	 0.0	 1	 -30.0	 30.0;
	167	 13	 0.000158	 0.000672	 0.0719	 331.0	 331.0	 331.0	 0.0	 0.0	 1	 -30.0	 30.0;
	1463	 13	 4.5e-05	 8.9e-05	 0.002	 268.0	 268.0	 268.0	 0.0	 0.0	 1	 -30.0	 30.0;
	820	 14	 0.033258	 0.090955	 0.001	 305	 305	 305	 0.0	 0.0	 1	 -30.0	 30.0;
	465	 15	 0.071303	 0.180902	 0.0021	 152	 152	 152	 0.0	 0.0	 1	 -30.0	 30.0;
	878	 15	 0.071554	 0.18191	 0.0021	 152	 152	 152	 0.0	 0.0	 1	 -30.0	 30.0;
	2664	 16	 0.00478	 0.028622	 0.0547	 455.0	 455.0	 455.0	 0.0	 0.0	 1	 -30.0	 30.0;
	451	 16	 0.00478	 0.028583	 0.0547	 455.0	 455.0	 455.0	 0.0	 0.0	 1	 -30.0	 30.0;
	151	 17	 0.000257	 0.000514	 0.0294	 53862	 53862	 53862	 0.0	 0.0	 1	 -30.0	 30.0;
	987	 18	 0.000257	 0.002153	 0.2147	 452.0	 452.0	 452.0	 0.0	 0.0	 1	 -30.0	 30.0;
	1264	 18	 0.000277	 0.000869	 0.0931	 481.0	 481.0	 481.0	 0.0	 0.0	 1	 -30.0	 30.0;
	1903	 19	 0.000756	 0.00252	 0.0	 11716	 11716	 11716	 0.0	 0.0	 1	 -30.0	 30.0;
	1247	 20	 0.000237	 0.00083	 0.1863	 268.0	 268.0	 268.0	 0.0	 0.0	 1	 -30.0	 30.0;
	1301	 20	 0.000178	 0.000612	 0.1377	 268.0	 268.0	 268.0	 0.0	 0.0	 1	 -30.0	 30.0;
	59	 21	 0.002568	 0.011753	 0.0203	 424.0	 424.0	 424.0	 0.0	 0.0	 1	 -30.0	 30.0;
	1908	 21	 0.002568	 0.011615	 0.0228	 290.0	 290.0	 290.0	 0.0	 0.0	 1	 -30.0	 30.0;
	591	 22	 0.102293	 0.226757	 0.0025	 122	 122	 122	 0.0	 0.0	 1	 -30.0	 30.0;
	855	 22	 0.177551	 0.405291	 0.0046	 68	 68	 68	 0.0	 0.0	 1	 -30.0	 30.0;
	1199	 22	 0.088264	 0.161566	 0.0017	 163	 163	 163	 0.0	 0.0	 1	 -30.0	 30.0;
	820	 23	 0.043336	 0.11867	 0.001	 234	 234	 234	 0.0	 0.0	 1	 -30.0	 30.0;
	1059	 23	 0.067775	 0.139834	 0.001	 191	 191	 191	 0.0	 0.0	 1	 -30.0	 30.0;
	1691	 23	 0.047367	 0.16125	 0.0021	 177	 177	 177	 0.0	 0.0	 1	 -30.0	 30.0;
	1922	 23	 0.004031	 0.016629	 0.001	 1726	 1726	 1726	 0.0	 0.0	 1	 -30.0	 30.0;
	1377	 24	 9.9e-05	 0.00077	 0.078	 379.0	 379.0	 379.0	 0.0	 0.0	 1	 -30.0	 30.0;
	1377	 2573	 9.9e-05	 0.00077	 0.077	 379.0	 379.0	 379.0	 0.0	 0.0	 1	 -30.0	 30.0;
	1908	 25	 0.000514	 0.003437	 0.0061	 290.0	 290.0	 290.0	 0.0	 0.0	 1	 -30.0	 30.0;
	1914	 25	 0.005476	 0.036879	 0.1255	 522.0	 522.0	 522.0	 0.0	 0.0	 1	 -30.0	 30.0;
	59	 25	 0.000514	 0.003457	 0.0061	 418.0	 418.0	 418.0	 0.0	 0.0	 1	 -30.0	 30.0;
	1138	 26	 0.003477	 0.01118	 0.0187	 304.0	 304.0	 304.0	 0.0	 0.0	 1	 -30.0	 30.0;
	1409	 26	 0.000612	 0.003121	 0.0152	 270.0	 270.0	 270.0	 0.0	 0.0	 1	 -30.0	 30.0;
	2755	 27	 0.013857	 0.035525	 0.0004	 775	 775	 775	 0.0	 0.0	 1	 -30.0	 30.0;
	1514	 28	 2.4e-05	 0.000144	 0.0213	 701.0	 701.0	 701.0	 0.0	 0.0	 1	 -30.0	 30.0;
	1514	 2574	 7.1e-05	 0.000162	 0.0162	 251.0	 251.0	 251.0	 0.0	 0.0	 1	 -30.0	 30.0;
	249	 29	 0.068027	 0.173091	 0.002	 159	 159	 159	 0.0	 0.0	 1	 -30.0	 30.0;
	296	 29	 0.027211	 0.068783	 0.001	 400	 400	 400	 0.0	 0.0	 1	 -30.0	 30.0;
	776	 29	 0.03099	 0.202822	 0.002	 146	 146	 146	 0.0	 0.0	 1	 -30.0	 30.0;
	1274	 30	 0.000257	 0.001165	 0.002	 405.0	 405.0	 405.0	 0.0	 0.0	 1	 -30.0	 30.0;
	1906	 31	 0.047317	 0.131595	 0.0015	 215	 215	 215	 0.0	 0.0	 1	 -30.0	 30.0;
	2686	 32	 0.075838	 0.224742	 0.0027	 125	 125	 125	 0.0	 0.0	 1	 -30.0	 30.0;
	648	 32	 0.028471	 0.089695	 0.001	 314	 314	 314	 0.0	 0.0	 1	 -30.0	 30.0;
	1337	 32	 0.080373	 0.255732	 0.003	 111	 111	 111	 0.0	 0.0	 1	 -30.0	 30.0;
	2050	 32	 0.000252	 0.000504	 0.0	 52398	 52398	 52398	 0.0	 0.0	 1	 -30.0	 30.0;
	1907	 33	 0.000444	 0.001136	 0.0	 21404	 21404	 21404	 0.0	 0.0	 1	 -30.0	 30.0;
	1370	 34	 0.057284	 0.130864	 0.0	 183	 183	 183	 0.0	 0.0	 1	 -30.0	 30.0;
	242	 35	 0.054749	 0.157445	 0.0027	 178	 178	 178	 0.0	 0.0	 1	 -30.0	 30.0;
	1507	 35	 0.038549	 0.103049	 0.0012	 269	 269	 269	 0.0	 0.0	 1	 -30.0	 30.0;
	2117	 35	 0.012598	 0.052406	 0.0006	 548	 548	 548	 0.0	 0.0	 1	 -30.0	 30.0;
	800	 36	 0.006914	 0.020741	 0.0	 1195	 1195	 1195	 0.0	 0.0	 1	 -30.0	 30.0;
	712	 37	 0.032124	 0.082892	 0.003	 333	 333	 333	 0.0	 0.0	 1	 -30.0	 30.0;
	1655	 37	 0.025573	 0.09869	 0.0012	 290	 290	 290	 0.0	 0.0	 1	 -30.0	 30.0;
	637	 39	 0.005709	 0.037926	 0.0688	 492.0	 492.0	 492.0	 0.0	 0.0	 1	 -30.0	 30.0;
	2032	 39	 0.001758	 0.011654	 0.0208	 492.0	 492.0	 492.0	 0.0	 0.0	 1	 -30.0	 30.0;
	2585	 40	 0.001383	 0.009462	 0.0172	 463.0	 463.0	 463.0	 0.0	 0.0	 1	 -30.0	 30.0;
	593	 40	 0.00156	 0.006933	 0.0121	 432.0	 432.0	 432.0	 0.0	 0.0	 1	 -30.0	 30.0;
	788	 40	 0.006376	 0.028733	 0.0506	 432.0	 432.0	 432.0	 0.0	 0.0	 1	 -30.0	 30.0;
	1291	 40	 0.00158	 0.010627	 0.0192	 481.0	 481.0	 481.0	 0.0	 0.0	 1	 -30.0	 30.0;
	1108	 41	 0.001086	 0.003536	 0.3766	 506.0	 506.0	 506.0	 0.0	 0.0	 1	 -30.0	 30.0;
	1108	 41	 0.001086	 0.003536	 0.3766	 506.0	 506.0	 506.0	 0.0	 0.0	 1	 -30.0	 30.0;
	235	 42	 0.04059	 0.110708	 0.0013	 251	 251	 251	 0.0	 0.0	 1	 -30.0	 30.0;
	248	 42	 0.073646	 0.225598	 0.0087	 125	 125	 125	 0.0	 0.0	 1	 -30.0	 30.0;
	285	 42	 0.02066	 0.088687	 0.0021	 325	 325	 325	 0.0	 0.0	 1	 -30.0	 30.0;
	1933	 42	 0.019904	 0.08516	 0.001	 338	 338	 338	 0.0	 0.0	 1	 -30.0	 30.0;
	1935	 42	 0.014361	 0.068027	 0.0035	 425	 425	 425	 0.0	 0.0	 1	 -30.0	 30.0;
	1770	 42	 0.059209	 0.150164	 0.0021	 183	 183	 183	 0.0	 0.0	 1	 -30.0	 30.0;
	183	 43	 0.004741	 0.020385	 0.0334	 1479	 1479	 1479	 0.0	 0.0	 1	 -30.0	 30.0;
	2006	 43	 0.009027	 0.048869	 0.084	 351.0	 351.0	 351.0	 0.0	 0.0	 1	 -30.0	 30.0;
	2036	 43	 0.003516	 0.016257	 0.0273	 311.0	 311.0	 311.0	 0.0	 0.0	 1	 -30.0	 30.0;
	265	 44	 0.059461	 0.163265	 0.0018	 170	 170	 170	 0.0	 0.0	 1	 -30.0	 30.0;
	1652	 44	 0.146384	 0.373394	 0.0051	 74	 74	 74	 0.0	 0.0	 1	 -30.0	 30.0;
	389	 45	 0.000514	 0.003417	 0.0278	 452.0	 452.0	 452.0	 0.0	 0.0	 1	 -30.0	 30.0;
	408	 45	 0.001084	 0.007198	 0.0132	 448.0	 448.0	 448.0	 0.0	 0.0	 1	 -30.0	 30.0;
	1955	 45	 0.000523	 0.002436	 0.0167	 348.0	 348.0	 348.0	 0.0	 0.0	 1	 -30.0	 30.0;
	389	 45	 0.000514	 0.003457	 0.0203	 356.0	 356.0	 356.0	 0.0	 0.0	 1	 -30.0	 30.0;
	408	 45	 0.001086	 0.007249	 0.0132	 540.0	 540.0	 540.0	 0.0	 0.0	 1	 -30.0	 30.0;
	1954	 45	 0.000553	 0.002469	 0.0157	 405.0	 405.0	 405.0	 0.0	 0.0	 1	 -30.0	 30.0;
	408	 45	 0.001086	 0.007269	 0.0132	 540.0	 540.0	 540.0	 0.0	 0.0	 1	 -30.0	 30.0;
	380	 47	 0.016125	 0.068279	 0.0081	 426	 426	 426	 0.0	 0.0	 1	 -30.0	 30.0;
	1699	 47	 0.059209	 0.150416	 0.0021	 184	 184	 184	 0.0	 0.0	 1	 -30.0	 30.0;
	380	 47	 0.016125	 0.068279	 0.0081	 426	 426	 426	 0.0	 0.0	 1	 -30.0	 30.0;
	1610	 48	 0.102293	 0.245906	 0.0027	 112	 112	 112	 0.0	 0.0	 1	 -30.0	 30.0;
	2120	 48	 0.036533	 0.088435	 0.001	 312	 312	 312	 0.0	 0.0	 1	 -30.0	 30.0;
	1006	 49	 0.019148	 0.081381	 0.0012	 354	 354	 354	 0.0	 0.0	 1	 -30.0	 30.0;
	1585	 49	 0.02318	 0.04258	 0.0006	 612	 612	 612	 0.0	 0.0	 1	 -30.0	 30.0;
	1972	 49	 0.002268	 0.022424	 0.0002	 1314	 1314	 1314	 0.0	 0.0	 1	 -30.0	 30.0;
	2121	 2576	 0.012094	 0.030486	 0.0004	 901	 901	 901	 0.0	 0.0	 1	 -30.0	 30.0;
	1006	 2576	 0.03351	 0.088435	 0.001	 313	 313	 313	 0.0	 0.0	 1	 -30.0	 30.0;
	1971	 2576	 0.00252	 0.02066	 0.0002	 1419	 1419	 1419	 0.0	 0.0	 1	 -30.0	 30.0;
	1103	 50	 0.001837	 0.011694	 0.0759	 467.0	 467.0	 467.0	 0.0	 0.0	 1	 -30.0	 30.0;
	1256	 50	 0.001067	 0.007131	 0.0132	 413.0	 413.0	 413.0	 0.0	 0.0	 1	 -30.0	 30.0;
	1709	 50	 0.001284	 0.008593	 0.0152	 541.0	 541.0	 541.0	 0.0	 0.0	 1	 -30.0	 30.0;
	2895	 50	 0.001284	 0.008593	 0.0162	 541.0	 541.0	 541.0	 0.0	 0.0	 1	 -30.0	 30.0;
	2895	 50	 0.001284	 0.008533	 0.0162	 541.0	 541.0	 541.0	 0.0	 0.0	 1	 -30.0	 30.0;
	2621	 51	 0.000494	 0.000928	 0.0699	 29203	 29203	 29203	 0.0	 0.0	 1	 -30.0	 30.0;
	434	 51	 0.000184	 0.00159	 0.1661	 422.0	 422.0	 422.0	 0.0	 0.0	 1	 -30.0	 30.0;
	1497	 51	 0.000198	 0.001711	 0.1711	 385.0	 385.0	 385.0	 0.0	 0.0	 1	 -30.0	 30.0;
	1522	 51	 0.000751	 0.003358	 0.1534	 385.0	 385.0	 385.0	 0.0	 0.0	 1	 -30.0	 30.0;
	450	 52	 0.000178	 0.001047	 0.1499	 452.0	 452.0	 452.0	 0.0	 0.0	 1	 -30.0	 30.0;
	651	 2942	 0.000119	 0.000474	 0.0688	 452.0	 452.0	 452.0	 0.0	 0.0	 1	 -30.0	 30.0;
	1247	 52	 0.000316	 0.002232	 0.2774	 452.0	 452.0	 452.0	 0.0	 0.0	 1	 -30.0	 30.0;
	2603	 53	 0.047115	 0.108088	 0.0031	 251	 251	 251	 0.0	 0.0	 1	 -30.0	 30.0;
	1126	 53	 0.036281	 0.154195	 0.0037	 187	 187	 187	 0.0	 0.0	 1	 -30.0	 30.0;
	1686	 54	 0.037227	 0.106836	 0.0328	 270	 270	 270	 0.0	 0.0	 1	 -30.0	 30.0;
	1929	 54	 0.006089	 0.020756	 0.0067	 1408	 1408	 1408	 0.0	 0.0	 1	 -30.0	 30.0;
	1109	 55	 0.000729	 0.005118	 0.0933	 389.0	 389.0	 389.0	 0.0	 0.0	 1	 -30.0	 30.0;
	1109	 55	 0.000755	 0.005235	 0.0909	 419.0	 419.0	 419.0	 0.0	 0.0	 1	 -30.0	 30.0;
	321	 56	 0.001787	 0.01946	 0.4214	 1579.0	 1579.0	 1579.0	 0.0	 0.0	 1	 -30.0	 30.0;
	638	 57	 0.001719	 0.00877	 0.0157	 321.0	 321.0	 321.0	 0.0	 0.0	 1	 -30.0	 30.0;
	1538	 57	 0.009165	 0.04318	 0.077	 321.0	 321.0	 321.0	 0.0	 0.0	 1	 -30.0	 30.0;
	190	 59	 0.004879	 0.032454	 0.0602	 487.0	 487.0	 487.0	 0.0	 0.0	 1	 -30.0	 30.0;
	258	 59	 0.006341	 0.042746	 0.0785	 418.0	 418.0	 418.0	 0.0	 0.0	 1	 -30.0	 30.0;
	284	 59	 0.006914	 0.031249	 0.0547	 327.0	 327.0	 327.0	 0.0	 0.0	 1	 -30.0	 30.0;
	396	 60	 0.000582	 0.007652	 0.2643	 2487.0	 2487.0	 2487.0	 0.0	 0.0	 1	 -30.0	 30.0;
	1001	 60	 0.001648	 0.021634	 0.748	 1470	 1470	 1470	 0.0	 0.0	 1	 -30.0	 30.0;
	1240	 60	 0.000838	 0.014301	 0.5198	 2229	 2229	 2229	 0.0	 0.0	 1	 -30.0	 30.0;
	2897	 60	 0.001163	 0.015312	 0.5285	 2077	 2077	 2077	 0.0	 0.0	 1	 -30.0	 30.0;
	396	 60	 0.000575	 0.007576	 0.2614	 2487.0	 2487.0	 2487.0	 0.0	 0.0	 1	 -30.0	 30.0;
...